/*--------------------------------*- C++ -*----------------------------------*\
| =========                 |                                                 |
| \\      /  F ield         | OpenFOAM: The Open Source CFD Toolbox           |
|  \\    /   O peration     | Version:  2206                                  |
|   \\  /    A nd           | Website:  www.openfoam.com                      |
|    \\/     M anipulation  |                                                 |
\*---------------------------------------------------------------------------*/
FoamFile
{
    version     2.0;
    format      ascii;
    arch        "LSB;label=32;scalar=64";
    class       polyBoundaryMesh;
    location    "1/polyMesh";
    object      boundary;
}
// * * * * * * * * * * * * * * * * * * * * * * * * * * * * * * * * * * * * * //

190
(
    inlet
    {
        type            patch;
        nFaces          0;
        startFace       868098;
    }
    outlet
    {
        type            patch;
        nFaces          1948;
        startFace       868098;
    }
    xpositive
    {
        type            wall;
        inGroups        1(wall);
        nFaces          2062;
        startFace       870046;
    }
    xnegative
    {
        type            wall;
        inGroups        1(wall);
        nFaces          0;
        startFace       872108;
    }
    ypositive
    {
        type            wall;
        inGroups        1(wall);
        nFaces          2222;
        startFace       872108;
    }
    ynegative
    {
        type            wall;
        inGroups        1(wall);
        nFaces          0;
        startFace       874330;
    }
    sphere1
    {
        type            wall;
        inGroups        1(wall);
        nFaces          0;
        startFace       874330;
    }
    sphere2
    {
        type            wall;
        inGroups        1(wall);
        nFaces          0;
        startFace       874330;
    }
    sphere3
    {
        type            wall;
        inGroups        1(wall);
        nFaces          6216;
        startFace       874330;
    }
    sphere4
    {
        type            wall;
        inGroups        1(wall);
        nFaces          35893;
        startFace       880546;
    }
    sphere5
    {
        type            wall;
        inGroups        1(wall);
        nFaces          0;
        startFace       916439;
    }
    sphere6
    {
        type            wall;
        inGroups        1(wall);
        nFaces          0;
        startFace       916439;
    }
    sphere7
    {
        type            wall;
        inGroups        1(wall);
        nFaces          0;
        startFace       916439;
    }
    sphere8
    {
        type            wall;
        inGroups        1(wall);
        nFaces          10424;
        startFace       916439;
    }
    sphere9
    {
        type            wall;
        inGroups        1(wall);
        nFaces          4002;
        startFace       926863;
    }
    sphere10
    {
        type            wall;
        inGroups        1(wall);
        nFaces          0;
        startFace       930865;
    }
    sphere11
    {
        type            wall;
        inGroups        1(wall);
        nFaces          0;
        startFace       930865;
    }
    sphere12
    {
        type            wall;
        inGroups        1(wall);
        nFaces          0;
        startFace       930865;
    }
    sphere13
    {
        type            wall;
        inGroups        1(wall);
        nFaces          0;
        startFace       930865;
    }
    sphere14
    {
        type            wall;
        inGroups        1(wall);
        nFaces          0;
        startFace       930865;
    }
    sphere15
    {
        type            wall;
        inGroups        1(wall);
        nFaces          7564;
        startFace       930865;
    }
    sphere16
    {
        type            wall;
        inGroups        1(wall);
        nFaces          0;
        startFace       938429;
    }
    sphere17
    {
        type            wall;
        inGroups        1(wall);
        nFaces          0;
        startFace       938429;
    }
    sphere18
    {
        type            wall;
        inGroups        1(wall);
        nFaces          4862;
        startFace       938429;
    }
    sphere19
    {
        type            wall;
        inGroups        1(wall);
        nFaces          0;
        startFace       943291;
    }
    sphere20
    {
        type            wall;
        inGroups        1(wall);
        nFaces          0;
        startFace       943291;
    }
    sphere21
    {
        type            wall;
        inGroups        1(wall);
        nFaces          0;
        startFace       943291;
    }
    sphere22
    {
        type            wall;
        inGroups        1(wall);
        nFaces          0;
        startFace       943291;
    }
    sphere23
    {
        type            wall;
        inGroups        1(wall);
        nFaces          1483;
        startFace       943291;
    }
    sphere24
    {
        type            wall;
        inGroups        1(wall);
        nFaces          761;
        startFace       944774;
    }
    sphere25
    {
        type            wall;
        inGroups        1(wall);
        nFaces          0;
        startFace       945535;
    }
    sphere26
    {
        type            wall;
        inGroups        1(wall);
        nFaces          0;
        startFace       945535;
    }
    sphere27
    {
        type            wall;
        inGroups        1(wall);
        nFaces          23478;
        startFace       945535;
    }
    sphere28
    {
        type            wall;
        inGroups        1(wall);
        nFaces          0;
        startFace       969013;
    }
    sphere29
    {
        type            wall;
        inGroups        1(wall);
        nFaces          0;
        startFace       969013;
    }
    sphere30
    {
        type            wall;
        inGroups        1(wall);
        nFaces          15571;
        startFace       969013;
    }
    sphere31
    {
        type            wall;
        inGroups        1(wall);
        nFaces          0;
        startFace       984584;
    }
    sphere32
    {
        type            wall;
        inGroups        1(wall);
        nFaces          14077;
        startFace       984584;
    }
    sphere33
    {
        type            wall;
        inGroups        1(wall);
        nFaces          0;
        startFace       998661;
    }
    sphere34
    {
        type            wall;
        inGroups        1(wall);
        nFaces          11204;
        startFace       998661;
    }
    sphere35
    {
        type            wall;
        inGroups        1(wall);
        nFaces          0;
        startFace       1009865;
    }
    sphere36
    {
        type            wall;
        inGroups        1(wall);
        nFaces          0;
        startFace       1009865;
    }
    sphere37
    {
        type            wall;
        inGroups        1(wall);
        nFaces          0;
        startFace       1009865;
    }
    sphere38
    {
        type            wall;
        inGroups        1(wall);
        nFaces          0;
        startFace       1009865;
    }
    sphere39
    {
        type            wall;
        inGroups        1(wall);
        nFaces          0;
        startFace       1009865;
    }
    sphere40
    {
        type            wall;
        inGroups        1(wall);
        nFaces          0;
        startFace       1009865;
    }
    sphere41
    {
        type            wall;
        inGroups        1(wall);
        nFaces          0;
        startFace       1009865;
    }
    sphere42
    {
        type            wall;
        inGroups        1(wall);
        nFaces          0;
        startFace       1009865;
    }
    sphere43
    {
        type            wall;
        inGroups        1(wall);
        nFaces          0;
        startFace       1009865;
    }
    sphere44
    {
        type            wall;
        inGroups        1(wall);
        nFaces          0;
        startFace       1009865;
    }
    sphere45
    {
        type            wall;
        inGroups        1(wall);
        nFaces          0;
        startFace       1009865;
    }
    sphere46
    {
        type            wall;
        inGroups        1(wall);
        nFaces          0;
        startFace       1009865;
    }
    sphere47
    {
        type            wall;
        inGroups        1(wall);
        nFaces          0;
        startFace       1009865;
    }
    sphere48
    {
        type            wall;
        inGroups        1(wall);
        nFaces          0;
        startFace       1009865;
    }
    sphere49
    {
        type            wall;
        inGroups        1(wall);
        nFaces          0;
        startFace       1009865;
    }
    sphere50
    {
        type            wall;
        inGroups        1(wall);
        nFaces          0;
        startFace       1009865;
    }
    sphere51
    {
        type            wall;
        inGroups        1(wall);
        nFaces          833;
        startFace       1009865;
    }
    sphere52
    {
        type            wall;
        inGroups        1(wall);
        nFaces          0;
        startFace       1010698;
    }
    sphere53
    {
        type            wall;
        inGroups        1(wall);
        nFaces          0;
        startFace       1010698;
    }
    sphere54
    {
        type            wall;
        inGroups        1(wall);
        nFaces          0;
        startFace       1010698;
    }
    sphere55
    {
        type            wall;
        inGroups        1(wall);
        nFaces          0;
        startFace       1010698;
    }
    sphere56
    {
        type            wall;
        inGroups        1(wall);
        nFaces          0;
        startFace       1010698;
    }
    sphere57
    {
        type            wall;
        inGroups        1(wall);
        nFaces          0;
        startFace       1010698;
    }
    sphere58
    {
        type            wall;
        inGroups        1(wall);
        nFaces          7589;
        startFace       1010698;
    }
    sphere59
    {
        type            wall;
        inGroups        1(wall);
        nFaces          0;
        startFace       1018287;
    }
    sphere60
    {
        type            wall;
        inGroups        1(wall);
        nFaces          0;
        startFace       1018287;
    }
    sphere61
    {
        type            wall;
        inGroups        1(wall);
        nFaces          0;
        startFace       1018287;
    }
    sphere62
    {
        type            wall;
        inGroups        1(wall);
        nFaces          562;
        startFace       1018287;
    }
    sphere63
    {
        type            wall;
        inGroups        1(wall);
        nFaces          0;
        startFace       1018849;
    }
    sphere64
    {
        type            wall;
        inGroups        1(wall);
        nFaces          0;
        startFace       1018849;
    }
    sphere65
    {
        type            wall;
        inGroups        1(wall);
        nFaces          0;
        startFace       1018849;
    }
    sphere66
    {
        type            wall;
        inGroups        1(wall);
        nFaces          0;
        startFace       1018849;
    }
    sphere67
    {
        type            wall;
        inGroups        1(wall);
        nFaces          0;
        startFace       1018849;
    }
    sphere68
    {
        type            wall;
        inGroups        1(wall);
        nFaces          0;
        startFace       1018849;
    }
    sphere69
    {
        type            wall;
        inGroups        1(wall);
        nFaces          0;
        startFace       1018849;
    }
    sphere70
    {
        type            wall;
        inGroups        1(wall);
        nFaces          0;
        startFace       1018849;
    }
    sphere71
    {
        type            wall;
        inGroups        1(wall);
        nFaces          0;
        startFace       1018849;
    }
    sphere72
    {
        type            wall;
        inGroups        1(wall);
        nFaces          1748;
        startFace       1018849;
    }
    sphere73
    {
        type            wall;
        inGroups        1(wall);
        nFaces          0;
        startFace       1020597;
    }
    sphere74
    {
        type            wall;
        inGroups        1(wall);
        nFaces          15482;
        startFace       1020597;
    }
    sphere75
    {
        type            wall;
        inGroups        1(wall);
        nFaces          0;
        startFace       1036079;
    }
    sphere76
    {
        type            wall;
        inGroups        1(wall);
        nFaces          0;
        startFace       1036079;
    }
    sphere77
    {
        type            wall;
        inGroups        1(wall);
        nFaces          16735;
        startFace       1036079;
    }
    sphere78
    {
        type            wall;
        inGroups        1(wall);
        nFaces          0;
        startFace       1052814;
    }
    sphere79
    {
        type            wall;
        inGroups        1(wall);
        nFaces          0;
        startFace       1052814;
    }
    sphere80
    {
        type            wall;
        inGroups        1(wall);
        nFaces          0;
        startFace       1052814;
    }
    sphere81
    {
        type            wall;
        inGroups        1(wall);
        nFaces          0;
        startFace       1052814;
    }
    sphere82
    {
        type            wall;
        inGroups        1(wall);
        nFaces          0;
        startFace       1052814;
    }
    sphere83
    {
        type            wall;
        inGroups        1(wall);
        nFaces          0;
        startFace       1052814;
    }
    sphere84
    {
        type            wall;
        inGroups        1(wall);
        nFaces          0;
        startFace       1052814;
    }
    sphere85
    {
        type            wall;
        inGroups        1(wall);
        nFaces          0;
        startFace       1052814;
    }
    sphere86
    {
        type            wall;
        inGroups        1(wall);
        nFaces          0;
        startFace       1052814;
    }
    sphere87
    {
        type            wall;
        inGroups        1(wall);
        nFaces          2016;
        startFace       1052814;
    }
    sphere88
    {
        type            wall;
        inGroups        1(wall);
        nFaces          7006;
        startFace       1054830;
    }
    sphere89
    {
        type            wall;
        inGroups        1(wall);
        nFaces          0;
        startFace       1061836;
    }
    sphere90
    {
        type            wall;
        inGroups        1(wall);
        nFaces          0;
        startFace       1061836;
    }
    sphere91
    {
        type            wall;
        inGroups        1(wall);
        nFaces          0;
        startFace       1061836;
    }
    sphere92
    {
        type            wall;
        inGroups        1(wall);
        nFaces          0;
        startFace       1061836;
    }
    sphere93
    {
        type            wall;
        inGroups        1(wall);
        nFaces          0;
        startFace       1061836;
    }
    sphere94
    {
        type            wall;
        inGroups        1(wall);
        nFaces          2697;
        startFace       1061836;
    }
    sphere95
    {
        type            wall;
        inGroups        1(wall);
        nFaces          5794;
        startFace       1064533;
    }
    sphere96
    {
        type            wall;
        inGroups        1(wall);
        nFaces          0;
        startFace       1070327;
    }
    sphere97
    {
        type            wall;
        inGroups        1(wall);
        nFaces          0;
        startFace       1070327;
    }
    sphere98
    {
        type            wall;
        inGroups        1(wall);
        nFaces          0;
        startFace       1070327;
    }
    sphere99
    {
        type            wall;
        inGroups        1(wall);
        nFaces          0;
        startFace       1070327;
    }
    sphere100
    {
        type            wall;
        inGroups        1(wall);
        nFaces          14242;
        startFace       1070327;
    }
    sphere101
    {
        type            wall;
        inGroups        1(wall);
        nFaces          5200;
        startFace       1084569;
    }
    sphere102
    {
        type            wall;
        inGroups        1(wall);
        nFaces          0;
        startFace       1089769;
    }
    sphere103
    {
        type            wall;
        inGroups        1(wall);
        nFaces          0;
        startFace       1089769;
    }
    sphere104
    {
        type            wall;
        inGroups        1(wall);
        nFaces          0;
        startFace       1089769;
    }
    sphere105
    {
        type            wall;
        inGroups        1(wall);
        nFaces          0;
        startFace       1089769;
    }
    sphere106
    {
        type            wall;
        inGroups        1(wall);
        nFaces          0;
        startFace       1089769;
    }
    sphere107
    {
        type            wall;
        inGroups        1(wall);
        nFaces          0;
        startFace       1089769;
    }
    sphere108
    {
        type            wall;
        inGroups        1(wall);
        nFaces          0;
        startFace       1089769;
    }
    sphere109
    {
        type            wall;
        inGroups        1(wall);
        nFaces          0;
        startFace       1089769;
    }
    sphere110
    {
        type            wall;
        inGroups        1(wall);
        nFaces          4336;
        startFace       1089769;
    }
    sphere111
    {
        type            wall;
        inGroups        1(wall);
        nFaces          0;
        startFace       1094105;
    }
    sphere112
    {
        type            wall;
        inGroups        1(wall);
        nFaces          0;
        startFace       1094105;
    }
    sphere113
    {
        type            wall;
        inGroups        1(wall);
        nFaces          0;
        startFace       1094105;
    }
    sphere114
    {
        type            wall;
        inGroups        1(wall);
        nFaces          0;
        startFace       1094105;
    }
    sphere115
    {
        type            wall;
        inGroups        1(wall);
        nFaces          0;
        startFace       1094105;
    }
    sphere116
    {
        type            wall;
        inGroups        1(wall);
        nFaces          0;
        startFace       1094105;
    }
    sphere117
    {
        type            wall;
        inGroups        1(wall);
        nFaces          0;
        startFace       1094105;
    }
    sphere118
    {
        type            wall;
        inGroups        1(wall);
        nFaces          0;
        startFace       1094105;
    }
    sphere119
    {
        type            wall;
        inGroups        1(wall);
        nFaces          0;
        startFace       1094105;
    }
    sphere120
    {
        type            wall;
        inGroups        1(wall);
        nFaces          0;
        startFace       1094105;
    }
    sphere121
    {
        type            wall;
        inGroups        1(wall);
        nFaces          0;
        startFace       1094105;
    }
    sphere122
    {
        type            wall;
        inGroups        1(wall);
        nFaces          0;
        startFace       1094105;
    }
    sphere123
    {
        type            wall;
        inGroups        1(wall);
        nFaces          0;
        startFace       1094105;
    }
    sphere124
    {
        type            wall;
        inGroups        1(wall);
        nFaces          0;
        startFace       1094105;
    }
    sphere125
    {
        type            wall;
        inGroups        1(wall);
        nFaces          0;
        startFace       1094105;
    }
    sphere126
    {
        type            wall;
        inGroups        1(wall);
        nFaces          0;
        startFace       1094105;
    }
    sphere127
    {
        type            wall;
        inGroups        1(wall);
        nFaces          0;
        startFace       1094105;
    }
    sphere128
    {
        type            wall;
        inGroups        1(wall);
        nFaces          0;
        startFace       1094105;
    }
    sphere129
    {
        type            wall;
        inGroups        1(wall);
        nFaces          0;
        startFace       1094105;
    }
    sphere130
    {
        type            wall;
        inGroups        1(wall);
        nFaces          0;
        startFace       1094105;
    }
    sphere131
    {
        type            wall;
        inGroups        1(wall);
        nFaces          0;
        startFace       1094105;
    }
    sphere132
    {
        type            wall;
        inGroups        1(wall);
        nFaces          0;
        startFace       1094105;
    }
    sphere133
    {
        type            wall;
        inGroups        1(wall);
        nFaces          2171;
        startFace       1094105;
    }
    sphere134
    {
        type            wall;
        inGroups        1(wall);
        nFaces          0;
        startFace       1096276;
    }
    sphere135
    {
        type            wall;
        inGroups        1(wall);
        nFaces          0;
        startFace       1096276;
    }
    sphere136
    {
        type            wall;
        inGroups        1(wall);
        nFaces          0;
        startFace       1096276;
    }
    sphere137
    {
        type            wall;
        inGroups        1(wall);
        nFaces          1463;
        startFace       1096276;
    }
    sphere138
    {
        type            wall;
        inGroups        1(wall);
        nFaces          0;
        startFace       1097739;
    }
    sphere139
    {
        type            wall;
        inGroups        1(wall);
        nFaces          0;
        startFace       1097739;
    }
    sphere140
    {
        type            wall;
        inGroups        1(wall);
        nFaces          0;
        startFace       1097739;
    }
    sphere141
    {
        type            wall;
        inGroups        1(wall);
        nFaces          0;
        startFace       1097739;
    }
    sphere142
    {
        type            wall;
        inGroups        1(wall);
        nFaces          0;
        startFace       1097739;
    }
    sphere143
    {
        type            wall;
        inGroups        1(wall);
        nFaces          0;
        startFace       1097739;
    }
    sphere144
    {
        type            wall;
        inGroups        1(wall);
        nFaces          0;
        startFace       1097739;
    }
    sphere145
    {
        type            wall;
        inGroups        1(wall);
        nFaces          0;
        startFace       1097739;
    }
    sphere146
    {
        type            wall;
        inGroups        1(wall);
        nFaces          2081;
        startFace       1097739;
    }
    sphere147
    {
        type            wall;
        inGroups        1(wall);
        nFaces          0;
        startFace       1099820;
    }
    sphere148
    {
        type            wall;
        inGroups        1(wall);
        nFaces          0;
        startFace       1099820;
    }
    sphere149
    {
        type            wall;
        inGroups        1(wall);
        nFaces          2150;
        startFace       1099820;
    }
    sphere150
    {
        type            wall;
        inGroups        1(wall);
        nFaces          0;
        startFace       1101970;
    }
    sphere151
    {
        type            wall;
        inGroups        1(wall);
        nFaces          6521;
        startFace       1101970;
    }
    sphere152
    {
        type            wall;
        inGroups        1(wall);
        nFaces          0;
        startFace       1108491;
    }
    sphere153
    {
        type            wall;
        inGroups        1(wall);
        nFaces          0;
        startFace       1108491;
    }
    sphere154
    {
        type            wall;
        inGroups        1(wall);
        nFaces          0;
        startFace       1108491;
    }
    sphere155
    {
        type            wall;
        inGroups        1(wall);
        nFaces          8872;
        startFace       1108491;
    }
    sphere156
    {
        type            wall;
        inGroups        1(wall);
        nFaces          0;
        startFace       1117363;
    }
    sphere157
    {
        type            wall;
        inGroups        1(wall);
        nFaces          0;
        startFace       1117363;
    }
    sphere158
    {
        type            wall;
        inGroups        1(wall);
        nFaces          0;
        startFace       1117363;
    }
    sphere159
    {
        type            wall;
        inGroups        1(wall);
        nFaces          0;
        startFace       1117363;
    }
    sphere160
    {
        type            wall;
        inGroups        1(wall);
        nFaces          0;
        startFace       1117363;
    }
    sphere161
    {
        type            wall;
        inGroups        1(wall);
        nFaces          10001;
        startFace       1117363;
    }
    sphere162
    {
        type            wall;
        inGroups        1(wall);
        nFaces          0;
        startFace       1127364;
    }
    sphere163
    {
        type            wall;
        inGroups        1(wall);
        nFaces          390;
        startFace       1127364;
    }
    sphere164
    {
        type            wall;
        inGroups        1(wall);
        nFaces          0;
        startFace       1127754;
    }
    sphere165
    {
        type            wall;
        inGroups        1(wall);
        nFaces          0;
        startFace       1127754;
    }
    sphere166
    {
        type            wall;
        inGroups        1(wall);
        nFaces          0;
        startFace       1127754;
    }
    sphere167
    {
        type            wall;
        inGroups        1(wall);
        nFaces          0;
        startFace       1127754;
    }
    sphere168
    {
        type            wall;
        inGroups        1(wall);
        nFaces          1532;
        startFace       1127754;
    }
    sphere169
    {
        type            wall;
        inGroups        1(wall);
        nFaces          4645;
        startFace       1129286;
    }
    sphere170
    {
        type            wall;
        inGroups        1(wall);
        nFaces          0;
        startFace       1133931;
    }
    sphere171
    {
        type            wall;
        inGroups        1(wall);
        nFaces          0;
        startFace       1133931;
    }
    sphere172
    {
        type            wall;
        inGroups        1(wall);
        nFaces          3548;
        startFace       1133931;
    }
    sphere173
    {
        type            wall;
        inGroups        1(wall);
        nFaces          0;
        startFace       1137479;
    }
    sphere174
    {
        type            wall;
        inGroups        1(wall);
        nFaces          5236;
        startFace       1137479;
    }
    sphere175
    {
        type            wall;
        inGroups        1(wall);
        nFaces          0;
        startFace       1142715;
    }
    sphere176
    {
        type            wall;
        inGroups        1(wall);
        nFaces          0;
        startFace       1142715;
    }
    sphere177
    {
        type            wall;
        inGroups        1(wall);
        nFaces          0;
        startFace       1142715;
    }
    sphere178
    {
        type            wall;
        inGroups        1(wall);
        nFaces          0;
        startFace       1142715;
    }
    sphere179
    {
        type            wall;
        inGroups        1(wall);
        nFaces          229;
        startFace       1142715;
    }
    sphere180
    {
        type            wall;
        inGroups        1(wall);
        nFaces          0;
        startFace       1142944;
    }
    procBoundary7to3
    {
        type            processor;
        inGroups        1(processor);
        nFaces          2419;
        startFace       1142944;
        matchTolerance  0.0001;
        transform       unknown;
        myProcNo        7;
        neighbProcNo    3;
    }
    procBoundary7to4
    {
        type            processor;
        inGroups        1(processor);
        nFaces          19;
        startFace       1145363;
        matchTolerance  0.0001;
        transform       unknown;
        myProcNo        7;
        neighbProcNo    4;
    }
    procBoundary7to5
    {
        type            processor;
        inGroups        1(processor);
        nFaces          2671;
        startFace       1145382;
        matchTolerance  0.0001;
        transform       unknown;
        myProcNo        7;
        neighbProcNo    5;
    }
    procBoundary7to6
    {
        type            processor;
        inGroups        1(processor);
        nFaces          2792;
        startFace       1148053;
        matchTolerance  0.0001;
        transform       unknown;
        myProcNo        7;
        neighbProcNo    6;
    }
)

// ************************************************************************* //
