/*--------------------------------*- C++ -*----------------------------------*\
| =========                 |                                                 |
| \\      /  F ield         | OpenFOAM: The Open Source CFD Toolbox           |
|  \\    /   O peration     | Version:  2206                                  |
|   \\  /    A nd           | Website:  www.openfoam.com                      |
|    \\/     M anipulation  |                                                 |
\*---------------------------------------------------------------------------*/
FoamFile
{
    version     2.0;
    format      ascii;
    arch        "LSB;label=32;scalar=64";
    class       polyBoundaryMesh;
    location    "constant/polyMesh";
    object      boundary;
}
// * * * * * * * * * * * * * * * * * * * * * * * * * * * * * * * * * * * * * //

9
(
    inlet
    {
        type            patch;
        nFaces          2500;
        startFace       367500;
    }
    outlet
    {
        type            patch;
        nFaces          0;
        startFace       370000;
    }
    xpositive
    {
        type            wall;
        inGroups        1(wall);
        nFaces          0;
        startFace       370000;
    }
    xnegative
    {
        type            wall;
        inGroups        1(wall);
        nFaces          2500;
        startFace       370000;
    }
    ypositive
    {
        type            wall;
        inGroups        1(wall);
        nFaces          0;
        startFace       372500;
    }
    ynegative
    {
        type            wall;
        inGroups        1(wall);
        nFaces          2500;
        startFace       372500;
    }
    procBoundary0to1
    {
        type            processor;
        inGroups        1(processor);
        nFaces          2500;
        startFace       375000;
        matchTolerance  0.0001;
        transform       unknown;
        myProcNo        0;
        neighbProcNo    1;
    }
    procBoundary0to2
    {
        type            processor;
        inGroups        1(processor);
        nFaces          2500;
        startFace       377500;
        matchTolerance  0.0001;
        transform       unknown;
        myProcNo        0;
        neighbProcNo    2;
    }
    procBoundary0to4
    {
        type            processor;
        inGroups        1(processor);
        nFaces          2500;
        startFace       380000;
        matchTolerance  0.0001;
        transform       unknown;
        myProcNo        0;
        neighbProcNo    4;
    }
)

// ************************************************************************* //
