/*--------------------------------*- C++ -*----------------------------------*\
| =========                 |                                                 |
| \\      /  F ield         | OpenFOAM: The Open Source CFD Toolbox           |
|  \\    /   O peration     | Version:  2206                                  |
|   \\  /    A nd           | Website:  www.openfoam.com                      |
|    \\/     M anipulation  |                                                 |
\*---------------------------------------------------------------------------*/
FoamFile
{
    version     2.0;
    format      ascii;
    arch        "LSB;label=32;scalar=64";
    class       polyBoundaryMesh;
    location    "1/polyMesh";
    object      boundary;
}
// * * * * * * * * * * * * * * * * * * * * * * * * * * * * * * * * * * * * * //

190
(
    inlet
    {
        type            patch;
        nFaces          1978;
        startFace       878428;
    }
    outlet
    {
        type            patch;
        nFaces          0;
        startFace       880406;
    }
    xpositive
    {
        type            wall;
        inGroups        1(wall);
        nFaces          0;
        startFace       880406;
    }
    xnegative
    {
        type            wall;
        inGroups        1(wall);
        nFaces          1998;
        startFace       880406;
    }
    ypositive
    {
        type            wall;
        inGroups        1(wall);
        nFaces          1918;
        startFace       882404;
    }
    ynegative
    {
        type            wall;
        inGroups        1(wall);
        nFaces          0;
        startFace       884322;
    }
    sphere1
    {
        type            wall;
        inGroups        1(wall);
        nFaces          0;
        startFace       884322;
    }
    sphere2
    {
        type            wall;
        inGroups        1(wall);
        nFaces          0;
        startFace       884322;
    }
    sphere3
    {
        type            wall;
        inGroups        1(wall);
        nFaces          0;
        startFace       884322;
    }
    sphere4
    {
        type            wall;
        inGroups        1(wall);
        nFaces          0;
        startFace       884322;
    }
    sphere5
    {
        type            wall;
        inGroups        1(wall);
        nFaces          8596;
        startFace       884322;
    }
    sphere6
    {
        type            wall;
        inGroups        1(wall);
        nFaces          0;
        startFace       892918;
    }
    sphere7
    {
        type            wall;
        inGroups        1(wall);
        nFaces          0;
        startFace       892918;
    }
    sphere8
    {
        type            wall;
        inGroups        1(wall);
        nFaces          0;
        startFace       892918;
    }
    sphere9
    {
        type            wall;
        inGroups        1(wall);
        nFaces          0;
        startFace       892918;
    }
    sphere10
    {
        type            wall;
        inGroups        1(wall);
        nFaces          0;
        startFace       892918;
    }
    sphere11
    {
        type            wall;
        inGroups        1(wall);
        nFaces          0;
        startFace       892918;
    }
    sphere12
    {
        type            wall;
        inGroups        1(wall);
        nFaces          2542;
        startFace       892918;
    }
    sphere13
    {
        type            wall;
        inGroups        1(wall);
        nFaces          0;
        startFace       895460;
    }
    sphere14
    {
        type            wall;
        inGroups        1(wall);
        nFaces          0;
        startFace       895460;
    }
    sphere15
    {
        type            wall;
        inGroups        1(wall);
        nFaces          0;
        startFace       895460;
    }
    sphere16
    {
        type            wall;
        inGroups        1(wall);
        nFaces          15264;
        startFace       895460;
    }
    sphere17
    {
        type            wall;
        inGroups        1(wall);
        nFaces          6546;
        startFace       910724;
    }
    sphere18
    {
        type            wall;
        inGroups        1(wall);
        nFaces          0;
        startFace       917270;
    }
    sphere19
    {
        type            wall;
        inGroups        1(wall);
        nFaces          0;
        startFace       917270;
    }
    sphere20
    {
        type            wall;
        inGroups        1(wall);
        nFaces          20471;
        startFace       917270;
    }
    sphere21
    {
        type            wall;
        inGroups        1(wall);
        nFaces          0;
        startFace       937741;
    }
    sphere22
    {
        type            wall;
        inGroups        1(wall);
        nFaces          0;
        startFace       937741;
    }
    sphere23
    {
        type            wall;
        inGroups        1(wall);
        nFaces          0;
        startFace       937741;
    }
    sphere24
    {
        type            wall;
        inGroups        1(wall);
        nFaces          5359;
        startFace       937741;
    }
    sphere25
    {
        type            wall;
        inGroups        1(wall);
        nFaces          0;
        startFace       943100;
    }
    sphere26
    {
        type            wall;
        inGroups        1(wall);
        nFaces          0;
        startFace       943100;
    }
    sphere27
    {
        type            wall;
        inGroups        1(wall);
        nFaces          0;
        startFace       943100;
    }
    sphere28
    {
        type            wall;
        inGroups        1(wall);
        nFaces          0;
        startFace       943100;
    }
    sphere29
    {
        type            wall;
        inGroups        1(wall);
        nFaces          0;
        startFace       943100;
    }
    sphere30
    {
        type            wall;
        inGroups        1(wall);
        nFaces          0;
        startFace       943100;
    }
    sphere31
    {
        type            wall;
        inGroups        1(wall);
        nFaces          0;
        startFace       943100;
    }
    sphere32
    {
        type            wall;
        inGroups        1(wall);
        nFaces          0;
        startFace       943100;
    }
    sphere33
    {
        type            wall;
        inGroups        1(wall);
        nFaces          8357;
        startFace       943100;
    }
    sphere34
    {
        type            wall;
        inGroups        1(wall);
        nFaces          0;
        startFace       951457;
    }
    sphere35
    {
        type            wall;
        inGroups        1(wall);
        nFaces          0;
        startFace       951457;
    }
    sphere36
    {
        type            wall;
        inGroups        1(wall);
        nFaces          0;
        startFace       951457;
    }
    sphere37
    {
        type            wall;
        inGroups        1(wall);
        nFaces          0;
        startFace       951457;
    }
    sphere38
    {
        type            wall;
        inGroups        1(wall);
        nFaces          0;
        startFace       951457;
    }
    sphere39
    {
        type            wall;
        inGroups        1(wall);
        nFaces          0;
        startFace       951457;
    }
    sphere40
    {
        type            wall;
        inGroups        1(wall);
        nFaces          10078;
        startFace       951457;
    }
    sphere41
    {
        type            wall;
        inGroups        1(wall);
        nFaces          0;
        startFace       961535;
    }
    sphere42
    {
        type            wall;
        inGroups        1(wall);
        nFaces          0;
        startFace       961535;
    }
    sphere43
    {
        type            wall;
        inGroups        1(wall);
        nFaces          6478;
        startFace       961535;
    }
    sphere44
    {
        type            wall;
        inGroups        1(wall);
        nFaces          0;
        startFace       968013;
    }
    sphere45
    {
        type            wall;
        inGroups        1(wall);
        nFaces          0;
        startFace       968013;
    }
    sphere46
    {
        type            wall;
        inGroups        1(wall);
        nFaces          0;
        startFace       968013;
    }
    sphere47
    {
        type            wall;
        inGroups        1(wall);
        nFaces          16383;
        startFace       968013;
    }
    sphere48
    {
        type            wall;
        inGroups        1(wall);
        nFaces          8032;
        startFace       984396;
    }
    sphere49
    {
        type            wall;
        inGroups        1(wall);
        nFaces          0;
        startFace       992428;
    }
    sphere50
    {
        type            wall;
        inGroups        1(wall);
        nFaces          0;
        startFace       992428;
    }
    sphere51
    {
        type            wall;
        inGroups        1(wall);
        nFaces          0;
        startFace       992428;
    }
    sphere52
    {
        type            wall;
        inGroups        1(wall);
        nFaces          5578;
        startFace       992428;
    }
    sphere53
    {
        type            wall;
        inGroups        1(wall);
        nFaces          0;
        startFace       998006;
    }
    sphere54
    {
        type            wall;
        inGroups        1(wall);
        nFaces          11087;
        startFace       998006;
    }
    sphere55
    {
        type            wall;
        inGroups        1(wall);
        nFaces          0;
        startFace       1009093;
    }
    sphere56
    {
        type            wall;
        inGroups        1(wall);
        nFaces          0;
        startFace       1009093;
    }
    sphere57
    {
        type            wall;
        inGroups        1(wall);
        nFaces          622;
        startFace       1009093;
    }
    sphere58
    {
        type            wall;
        inGroups        1(wall);
        nFaces          0;
        startFace       1009715;
    }
    sphere59
    {
        type            wall;
        inGroups        1(wall);
        nFaces          0;
        startFace       1009715;
    }
    sphere60
    {
        type            wall;
        inGroups        1(wall);
        nFaces          24142;
        startFace       1009715;
    }
    sphere61
    {
        type            wall;
        inGroups        1(wall);
        nFaces          18932;
        startFace       1033857;
    }
    sphere62
    {
        type            wall;
        inGroups        1(wall);
        nFaces          4675;
        startFace       1052789;
    }
    sphere63
    {
        type            wall;
        inGroups        1(wall);
        nFaces          0;
        startFace       1057464;
    }
    sphere64
    {
        type            wall;
        inGroups        1(wall);
        nFaces          5510;
        startFace       1057464;
    }
    sphere65
    {
        type            wall;
        inGroups        1(wall);
        nFaces          0;
        startFace       1062974;
    }
    sphere66
    {
        type            wall;
        inGroups        1(wall);
        nFaces          0;
        startFace       1062974;
    }
    sphere67
    {
        type            wall;
        inGroups        1(wall);
        nFaces          0;
        startFace       1062974;
    }
    sphere68
    {
        type            wall;
        inGroups        1(wall);
        nFaces          0;
        startFace       1062974;
    }
    sphere69
    {
        type            wall;
        inGroups        1(wall);
        nFaces          0;
        startFace       1062974;
    }
    sphere70
    {
        type            wall;
        inGroups        1(wall);
        nFaces          10093;
        startFace       1062974;
    }
    sphere71
    {
        type            wall;
        inGroups        1(wall);
        nFaces          0;
        startFace       1073067;
    }
    sphere72
    {
        type            wall;
        inGroups        1(wall);
        nFaces          0;
        startFace       1073067;
    }
    sphere73
    {
        type            wall;
        inGroups        1(wall);
        nFaces          0;
        startFace       1073067;
    }
    sphere74
    {
        type            wall;
        inGroups        1(wall);
        nFaces          0;
        startFace       1073067;
    }
    sphere75
    {
        type            wall;
        inGroups        1(wall);
        nFaces          0;
        startFace       1073067;
    }
    sphere76
    {
        type            wall;
        inGroups        1(wall);
        nFaces          1745;
        startFace       1073067;
    }
    sphere77
    {
        type            wall;
        inGroups        1(wall);
        nFaces          0;
        startFace       1074812;
    }
    sphere78
    {
        type            wall;
        inGroups        1(wall);
        nFaces          6592;
        startFace       1074812;
    }
    sphere79
    {
        type            wall;
        inGroups        1(wall);
        nFaces          13085;
        startFace       1081404;
    }
    sphere80
    {
        type            wall;
        inGroups        1(wall);
        nFaces          0;
        startFace       1094489;
    }
    sphere81
    {
        type            wall;
        inGroups        1(wall);
        nFaces          0;
        startFace       1094489;
    }
    sphere82
    {
        type            wall;
        inGroups        1(wall);
        nFaces          0;
        startFace       1094489;
    }
    sphere83
    {
        type            wall;
        inGroups        1(wall);
        nFaces          5424;
        startFace       1094489;
    }
    sphere84
    {
        type            wall;
        inGroups        1(wall);
        nFaces          0;
        startFace       1099913;
    }
    sphere85
    {
        type            wall;
        inGroups        1(wall);
        nFaces          0;
        startFace       1099913;
    }
    sphere86
    {
        type            wall;
        inGroups        1(wall);
        nFaces          0;
        startFace       1099913;
    }
    sphere87
    {
        type            wall;
        inGroups        1(wall);
        nFaces          2431;
        startFace       1099913;
    }
    sphere88
    {
        type            wall;
        inGroups        1(wall);
        nFaces          0;
        startFace       1102344;
    }
    sphere89
    {
        type            wall;
        inGroups        1(wall);
        nFaces          0;
        startFace       1102344;
    }
    sphere90
    {
        type            wall;
        inGroups        1(wall);
        nFaces          0;
        startFace       1102344;
    }
    sphere91
    {
        type            wall;
        inGroups        1(wall);
        nFaces          0;
        startFace       1102344;
    }
    sphere92
    {
        type            wall;
        inGroups        1(wall);
        nFaces          0;
        startFace       1102344;
    }
    sphere93
    {
        type            wall;
        inGroups        1(wall);
        nFaces          0;
        startFace       1102344;
    }
    sphere94
    {
        type            wall;
        inGroups        1(wall);
        nFaces          0;
        startFace       1102344;
    }
    sphere95
    {
        type            wall;
        inGroups        1(wall);
        nFaces          0;
        startFace       1102344;
    }
    sphere96
    {
        type            wall;
        inGroups        1(wall);
        nFaces          0;
        startFace       1102344;
    }
    sphere97
    {
        type            wall;
        inGroups        1(wall);
        nFaces          6004;
        startFace       1102344;
    }
    sphere98
    {
        type            wall;
        inGroups        1(wall);
        nFaces          0;
        startFace       1108348;
    }
    sphere99
    {
        type            wall;
        inGroups        1(wall);
        nFaces          0;
        startFace       1108348;
    }
    sphere100
    {
        type            wall;
        inGroups        1(wall);
        nFaces          0;
        startFace       1108348;
    }
    sphere101
    {
        type            wall;
        inGroups        1(wall);
        nFaces          0;
        startFace       1108348;
    }
    sphere102
    {
        type            wall;
        inGroups        1(wall);
        nFaces          0;
        startFace       1108348;
    }
    sphere103
    {
        type            wall;
        inGroups        1(wall);
        nFaces          0;
        startFace       1108348;
    }
    sphere104
    {
        type            wall;
        inGroups        1(wall);
        nFaces          0;
        startFace       1108348;
    }
    sphere105
    {
        type            wall;
        inGroups        1(wall);
        nFaces          0;
        startFace       1108348;
    }
    sphere106
    {
        type            wall;
        inGroups        1(wall);
        nFaces          0;
        startFace       1108348;
    }
    sphere107
    {
        type            wall;
        inGroups        1(wall);
        nFaces          0;
        startFace       1108348;
    }
    sphere108
    {
        type            wall;
        inGroups        1(wall);
        nFaces          3123;
        startFace       1108348;
    }
    sphere109
    {
        type            wall;
        inGroups        1(wall);
        nFaces          0;
        startFace       1111471;
    }
    sphere110
    {
        type            wall;
        inGroups        1(wall);
        nFaces          0;
        startFace       1111471;
    }
    sphere111
    {
        type            wall;
        inGroups        1(wall);
        nFaces          0;
        startFace       1111471;
    }
    sphere112
    {
        type            wall;
        inGroups        1(wall);
        nFaces          0;
        startFace       1111471;
    }
    sphere113
    {
        type            wall;
        inGroups        1(wall);
        nFaces          0;
        startFace       1111471;
    }
    sphere114
    {
        type            wall;
        inGroups        1(wall);
        nFaces          9475;
        startFace       1111471;
    }
    sphere115
    {
        type            wall;
        inGroups        1(wall);
        nFaces          0;
        startFace       1120946;
    }
    sphere116
    {
        type            wall;
        inGroups        1(wall);
        nFaces          0;
        startFace       1120946;
    }
    sphere117
    {
        type            wall;
        inGroups        1(wall);
        nFaces          0;
        startFace       1120946;
    }
    sphere118
    {
        type            wall;
        inGroups        1(wall);
        nFaces          0;
        startFace       1120946;
    }
    sphere119
    {
        type            wall;
        inGroups        1(wall);
        nFaces          0;
        startFace       1120946;
    }
    sphere120
    {
        type            wall;
        inGroups        1(wall);
        nFaces          0;
        startFace       1120946;
    }
    sphere121
    {
        type            wall;
        inGroups        1(wall);
        nFaces          0;
        startFace       1120946;
    }
    sphere122
    {
        type            wall;
        inGroups        1(wall);
        nFaces          0;
        startFace       1120946;
    }
    sphere123
    {
        type            wall;
        inGroups        1(wall);
        nFaces          0;
        startFace       1120946;
    }
    sphere124
    {
        type            wall;
        inGroups        1(wall);
        nFaces          0;
        startFace       1120946;
    }
    sphere125
    {
        type            wall;
        inGroups        1(wall);
        nFaces          0;
        startFace       1120946;
    }
    sphere126
    {
        type            wall;
        inGroups        1(wall);
        nFaces          0;
        startFace       1120946;
    }
    sphere127
    {
        type            wall;
        inGroups        1(wall);
        nFaces          111;
        startFace       1120946;
    }
    sphere128
    {
        type            wall;
        inGroups        1(wall);
        nFaces          0;
        startFace       1121057;
    }
    sphere129
    {
        type            wall;
        inGroups        1(wall);
        nFaces          0;
        startFace       1121057;
    }
    sphere130
    {
        type            wall;
        inGroups        1(wall);
        nFaces          0;
        startFace       1121057;
    }
    sphere131
    {
        type            wall;
        inGroups        1(wall);
        nFaces          0;
        startFace       1121057;
    }
    sphere132
    {
        type            wall;
        inGroups        1(wall);
        nFaces          0;
        startFace       1121057;
    }
    sphere133
    {
        type            wall;
        inGroups        1(wall);
        nFaces          0;
        startFace       1121057;
    }
    sphere134
    {
        type            wall;
        inGroups        1(wall);
        nFaces          0;
        startFace       1121057;
    }
    sphere135
    {
        type            wall;
        inGroups        1(wall);
        nFaces          0;
        startFace       1121057;
    }
    sphere136
    {
        type            wall;
        inGroups        1(wall);
        nFaces          0;
        startFace       1121057;
    }
    sphere137
    {
        type            wall;
        inGroups        1(wall);
        nFaces          0;
        startFace       1121057;
    }
    sphere138
    {
        type            wall;
        inGroups        1(wall);
        nFaces          0;
        startFace       1121057;
    }
    sphere139
    {
        type            wall;
        inGroups        1(wall);
        nFaces          0;
        startFace       1121057;
    }
    sphere140
    {
        type            wall;
        inGroups        1(wall);
        nFaces          788;
        startFace       1121057;
    }
    sphere141
    {
        type            wall;
        inGroups        1(wall);
        nFaces          0;
        startFace       1121845;
    }
    sphere142
    {
        type            wall;
        inGroups        1(wall);
        nFaces          0;
        startFace       1121845;
    }
    sphere143
    {
        type            wall;
        inGroups        1(wall);
        nFaces          0;
        startFace       1121845;
    }
    sphere144
    {
        type            wall;
        inGroups        1(wall);
        nFaces          0;
        startFace       1121845;
    }
    sphere145
    {
        type            wall;
        inGroups        1(wall);
        nFaces          0;
        startFace       1121845;
    }
    sphere146
    {
        type            wall;
        inGroups        1(wall);
        nFaces          0;
        startFace       1121845;
    }
    sphere147
    {
        type            wall;
        inGroups        1(wall);
        nFaces          0;
        startFace       1121845;
    }
    sphere148
    {
        type            wall;
        inGroups        1(wall);
        nFaces          0;
        startFace       1121845;
    }
    sphere149
    {
        type            wall;
        inGroups        1(wall);
        nFaces          0;
        startFace       1121845;
    }
    sphere150
    {
        type            wall;
        inGroups        1(wall);
        nFaces          0;
        startFace       1121845;
    }
    sphere151
    {
        type            wall;
        inGroups        1(wall);
        nFaces          0;
        startFace       1121845;
    }
    sphere152
    {
        type            wall;
        inGroups        1(wall);
        nFaces          0;
        startFace       1121845;
    }
    sphere153
    {
        type            wall;
        inGroups        1(wall);
        nFaces          0;
        startFace       1121845;
    }
    sphere154
    {
        type            wall;
        inGroups        1(wall);
        nFaces          0;
        startFace       1121845;
    }
    sphere155
    {
        type            wall;
        inGroups        1(wall);
        nFaces          0;
        startFace       1121845;
    }
    sphere156
    {
        type            wall;
        inGroups        1(wall);
        nFaces          0;
        startFace       1121845;
    }
    sphere157
    {
        type            wall;
        inGroups        1(wall);
        nFaces          12359;
        startFace       1121845;
    }
    sphere158
    {
        type            wall;
        inGroups        1(wall);
        nFaces          0;
        startFace       1134204;
    }
    sphere159
    {
        type            wall;
        inGroups        1(wall);
        nFaces          0;
        startFace       1134204;
    }
    sphere160
    {
        type            wall;
        inGroups        1(wall);
        nFaces          0;
        startFace       1134204;
    }
    sphere161
    {
        type            wall;
        inGroups        1(wall);
        nFaces          0;
        startFace       1134204;
    }
    sphere162
    {
        type            wall;
        inGroups        1(wall);
        nFaces          0;
        startFace       1134204;
    }
    sphere163
    {
        type            wall;
        inGroups        1(wall);
        nFaces          0;
        startFace       1134204;
    }
    sphere164
    {
        type            wall;
        inGroups        1(wall);
        nFaces          0;
        startFace       1134204;
    }
    sphere165
    {
        type            wall;
        inGroups        1(wall);
        nFaces          0;
        startFace       1134204;
    }
    sphere166
    {
        type            wall;
        inGroups        1(wall);
        nFaces          0;
        startFace       1134204;
    }
    sphere167
    {
        type            wall;
        inGroups        1(wall);
        nFaces          0;
        startFace       1134204;
    }
    sphere168
    {
        type            wall;
        inGroups        1(wall);
        nFaces          0;
        startFace       1134204;
    }
    sphere169
    {
        type            wall;
        inGroups        1(wall);
        nFaces          0;
        startFace       1134204;
    }
    sphere170
    {
        type            wall;
        inGroups        1(wall);
        nFaces          1127;
        startFace       1134204;
    }
    sphere171
    {
        type            wall;
        inGroups        1(wall);
        nFaces          3037;
        startFace       1135331;
    }
    sphere172
    {
        type            wall;
        inGroups        1(wall);
        nFaces          0;
        startFace       1138368;
    }
    sphere173
    {
        type            wall;
        inGroups        1(wall);
        nFaces          1280;
        startFace       1138368;
    }
    sphere174
    {
        type            wall;
        inGroups        1(wall);
        nFaces          0;
        startFace       1139648;
    }
    sphere175
    {
        type            wall;
        inGroups        1(wall);
        nFaces          0;
        startFace       1139648;
    }
    sphere176
    {
        type            wall;
        inGroups        1(wall);
        nFaces          619;
        startFace       1139648;
    }
    sphere177
    {
        type            wall;
        inGroups        1(wall);
        nFaces          0;
        startFace       1140267;
    }
    sphere178
    {
        type            wall;
        inGroups        1(wall);
        nFaces          6234;
        startFace       1140267;
    }
    sphere179
    {
        type            wall;
        inGroups        1(wall);
        nFaces          0;
        startFace       1146501;
    }
    sphere180
    {
        type            wall;
        inGroups        1(wall);
        nFaces          0;
        startFace       1146501;
    }
    procBoundary1to0
    {
        type            processor;
        inGroups        1(processor);
        nFaces          2491;
        startFace       1146501;
        matchTolerance  0.0001;
        transform       unknown;
        myProcNo        1;
        neighbProcNo    0;
    }
    procBoundary1to3
    {
        type            processor;
        inGroups        1(processor);
        nFaces          3178;
        startFace       1148992;
        matchTolerance  0.0001;
        transform       unknown;
        myProcNo        1;
        neighbProcNo    3;
    }
    procBoundary1to4
    {
        type            processor;
        inGroups        1(processor);
        nFaces          1;
        startFace       1152170;
        matchTolerance  0.0001;
        transform       unknown;
        myProcNo        1;
        neighbProcNo    4;
    }
    procBoundary1to5
    {
        type            processor;
        inGroups        1(processor);
        nFaces          2510;
        startFace       1152171;
        matchTolerance  0.0001;
        transform       unknown;
        myProcNo        1;
        neighbProcNo    5;
    }
)

// ************************************************************************* //
