/*--------------------------------*- C++ -*----------------------------------*\
| =========                 |                                                 |
| \\      /  F ield         | OpenFOAM: The Open Source CFD Toolbox           |
|  \\    /   O peration     | Version:  2206                                  |
|   \\  /    A nd           | Website:  www.openfoam.com                      |
|    \\/     M anipulation  |                                                 |
\*---------------------------------------------------------------------------*/
FoamFile
{
    version     2.0;
    format      ascii;
    arch        "LSB;label=32;scalar=64";
    class       polyBoundaryMesh;
    location    "1/polyMesh";
    object      boundary;
}
// * * * * * * * * * * * * * * * * * * * * * * * * * * * * * * * * * * * * * //

189
(
    inlet
    {
        type            patch;
        nFaces          0;
        startFace       825783;
    }
    outlet
    {
        type            patch;
        nFaces          2206;
        startFace       825783;
    }
    xpositive
    {
        type            wall;
        inGroups        1(wall);
        nFaces          0;
        startFace       827989;
    }
    xnegative
    {
        type            wall;
        inGroups        1(wall);
        nFaces          2312;
        startFace       827989;
    }
    ypositive
    {
        type            wall;
        inGroups        1(wall);
        nFaces          0;
        startFace       830301;
    }
    ynegative
    {
        type            wall;
        inGroups        1(wall);
        nFaces          2037;
        startFace       830301;
    }
    sphere1
    {
        type            wall;
        inGroups        1(wall);
        nFaces          14763;
        startFace       832338;
    }
    sphere2
    {
        type            wall;
        inGroups        1(wall);
        nFaces          0;
        startFace       847101;
    }
    sphere3
    {
        type            wall;
        inGroups        1(wall);
        nFaces          0;
        startFace       847101;
    }
    sphere4
    {
        type            wall;
        inGroups        1(wall);
        nFaces          0;
        startFace       847101;
    }
    sphere5
    {
        type            wall;
        inGroups        1(wall);
        nFaces          0;
        startFace       847101;
    }
    sphere6
    {
        type            wall;
        inGroups        1(wall);
        nFaces          0;
        startFace       847101;
    }
    sphere7
    {
        type            wall;
        inGroups        1(wall);
        nFaces          17719;
        startFace       847101;
    }
    sphere8
    {
        type            wall;
        inGroups        1(wall);
        nFaces          0;
        startFace       864820;
    }
    sphere9
    {
        type            wall;
        inGroups        1(wall);
        nFaces          0;
        startFace       864820;
    }
    sphere10
    {
        type            wall;
        inGroups        1(wall);
        nFaces          0;
        startFace       864820;
    }
    sphere11
    {
        type            wall;
        inGroups        1(wall);
        nFaces          0;
        startFace       864820;
    }
    sphere12
    {
        type            wall;
        inGroups        1(wall);
        nFaces          0;
        startFace       864820;
    }
    sphere13
    {
        type            wall;
        inGroups        1(wall);
        nFaces          0;
        startFace       864820;
    }
    sphere14
    {
        type            wall;
        inGroups        1(wall);
        nFaces          0;
        startFace       864820;
    }
    sphere15
    {
        type            wall;
        inGroups        1(wall);
        nFaces          0;
        startFace       864820;
    }
    sphere16
    {
        type            wall;
        inGroups        1(wall);
        nFaces          0;
        startFace       864820;
    }
    sphere17
    {
        type            wall;
        inGroups        1(wall);
        nFaces          2410;
        startFace       864820;
    }
    sphere18
    {
        type            wall;
        inGroups        1(wall);
        nFaces          0;
        startFace       867230;
    }
    sphere19
    {
        type            wall;
        inGroups        1(wall);
        nFaces          0;
        startFace       867230;
    }
    sphere20
    {
        type            wall;
        inGroups        1(wall);
        nFaces          0;
        startFace       867230;
    }
    sphere21
    {
        type            wall;
        inGroups        1(wall);
        nFaces          14389;
        startFace       867230;
    }
    sphere22
    {
        type            wall;
        inGroups        1(wall);
        nFaces          0;
        startFace       881619;
    }
    sphere23
    {
        type            wall;
        inGroups        1(wall);
        nFaces          0;
        startFace       881619;
    }
    sphere24
    {
        type            wall;
        inGroups        1(wall);
        nFaces          0;
        startFace       881619;
    }
    sphere25
    {
        type            wall;
        inGroups        1(wall);
        nFaces          0;
        startFace       881619;
    }
    sphere26
    {
        type            wall;
        inGroups        1(wall);
        nFaces          0;
        startFace       881619;
    }
    sphere27
    {
        type            wall;
        inGroups        1(wall);
        nFaces          0;
        startFace       881619;
    }
    sphere28
    {
        type            wall;
        inGroups        1(wall);
        nFaces          6804;
        startFace       881619;
    }
    sphere29
    {
        type            wall;
        inGroups        1(wall);
        nFaces          0;
        startFace       888423;
    }
    sphere30
    {
        type            wall;
        inGroups        1(wall);
        nFaces          0;
        startFace       888423;
    }
    sphere31
    {
        type            wall;
        inGroups        1(wall);
        nFaces          0;
        startFace       888423;
    }
    sphere32
    {
        type            wall;
        inGroups        1(wall);
        nFaces          0;
        startFace       888423;
    }
    sphere33
    {
        type            wall;
        inGroups        1(wall);
        nFaces          801;
        startFace       888423;
    }
    sphere34
    {
        type            wall;
        inGroups        1(wall);
        nFaces          0;
        startFace       889224;
    }
    sphere35
    {
        type            wall;
        inGroups        1(wall);
        nFaces          0;
        startFace       889224;
    }
    sphere36
    {
        type            wall;
        inGroups        1(wall);
        nFaces          14696;
        startFace       889224;
    }
    sphere37
    {
        type            wall;
        inGroups        1(wall);
        nFaces          0;
        startFace       903920;
    }
    sphere38
    {
        type            wall;
        inGroups        1(wall);
        nFaces          0;
        startFace       903920;
    }
    sphere39
    {
        type            wall;
        inGroups        1(wall);
        nFaces          16855;
        startFace       903920;
    }
    sphere40
    {
        type            wall;
        inGroups        1(wall);
        nFaces          0;
        startFace       920775;
    }
    sphere41
    {
        type            wall;
        inGroups        1(wall);
        nFaces          0;
        startFace       920775;
    }
    sphere42
    {
        type            wall;
        inGroups        1(wall);
        nFaces          0;
        startFace       920775;
    }
    sphere43
    {
        type            wall;
        inGroups        1(wall);
        nFaces          0;
        startFace       920775;
    }
    sphere44
    {
        type            wall;
        inGroups        1(wall);
        nFaces          20529;
        startFace       920775;
    }
    sphere45
    {
        type            wall;
        inGroups        1(wall);
        nFaces          0;
        startFace       941304;
    }
    sphere46
    {
        type            wall;
        inGroups        1(wall);
        nFaces          0;
        startFace       941304;
    }
    sphere47
    {
        type            wall;
        inGroups        1(wall);
        nFaces          0;
        startFace       941304;
    }
    sphere48
    {
        type            wall;
        inGroups        1(wall);
        nFaces          0;
        startFace       941304;
    }
    sphere49
    {
        type            wall;
        inGroups        1(wall);
        nFaces          0;
        startFace       941304;
    }
    sphere50
    {
        type            wall;
        inGroups        1(wall);
        nFaces          0;
        startFace       941304;
    }
    sphere51
    {
        type            wall;
        inGroups        1(wall);
        nFaces          4787;
        startFace       941304;
    }
    sphere52
    {
        type            wall;
        inGroups        1(wall);
        nFaces          0;
        startFace       946091;
    }
    sphere53
    {
        type            wall;
        inGroups        1(wall);
        nFaces          0;
        startFace       946091;
    }
    sphere54
    {
        type            wall;
        inGroups        1(wall);
        nFaces          0;
        startFace       946091;
    }
    sphere55
    {
        type            wall;
        inGroups        1(wall);
        nFaces          18090;
        startFace       946091;
    }
    sphere56
    {
        type            wall;
        inGroups        1(wall);
        nFaces          507;
        startFace       964181;
    }
    sphere57
    {
        type            wall;
        inGroups        1(wall);
        nFaces          0;
        startFace       964688;
    }
    sphere58
    {
        type            wall;
        inGroups        1(wall);
        nFaces          318;
        startFace       964688;
    }
    sphere59
    {
        type            wall;
        inGroups        1(wall);
        nFaces          0;
        startFace       965006;
    }
    sphere60
    {
        type            wall;
        inGroups        1(wall);
        nFaces          0;
        startFace       965006;
    }
    sphere61
    {
        type            wall;
        inGroups        1(wall);
        nFaces          0;
        startFace       965006;
    }
    sphere62
    {
        type            wall;
        inGroups        1(wall);
        nFaces          0;
        startFace       965006;
    }
    sphere63
    {
        type            wall;
        inGroups        1(wall);
        nFaces          5408;
        startFace       965006;
    }
    sphere64
    {
        type            wall;
        inGroups        1(wall);
        nFaces          0;
        startFace       970414;
    }
    sphere65
    {
        type            wall;
        inGroups        1(wall);
        nFaces          0;
        startFace       970414;
    }
    sphere66
    {
        type            wall;
        inGroups        1(wall);
        nFaces          0;
        startFace       970414;
    }
    sphere67
    {
        type            wall;
        inGroups        1(wall);
        nFaces          0;
        startFace       970414;
    }
    sphere68
    {
        type            wall;
        inGroups        1(wall);
        nFaces          0;
        startFace       970414;
    }
    sphere69
    {
        type            wall;
        inGroups        1(wall);
        nFaces          0;
        startFace       970414;
    }
    sphere70
    {
        type            wall;
        inGroups        1(wall);
        nFaces          0;
        startFace       970414;
    }
    sphere71
    {
        type            wall;
        inGroups        1(wall);
        nFaces          0;
        startFace       970414;
    }
    sphere72
    {
        type            wall;
        inGroups        1(wall);
        nFaces          0;
        startFace       970414;
    }
    sphere73
    {
        type            wall;
        inGroups        1(wall);
        nFaces          0;
        startFace       970414;
    }
    sphere74
    {
        type            wall;
        inGroups        1(wall);
        nFaces          0;
        startFace       970414;
    }
    sphere75
    {
        type            wall;
        inGroups        1(wall);
        nFaces          0;
        startFace       970414;
    }
    sphere76
    {
        type            wall;
        inGroups        1(wall);
        nFaces          0;
        startFace       970414;
    }
    sphere77
    {
        type            wall;
        inGroups        1(wall);
        nFaces          0;
        startFace       970414;
    }
    sphere78
    {
        type            wall;
        inGroups        1(wall);
        nFaces          0;
        startFace       970414;
    }
    sphere79
    {
        type            wall;
        inGroups        1(wall);
        nFaces          0;
        startFace       970414;
    }
    sphere80
    {
        type            wall;
        inGroups        1(wall);
        nFaces          0;
        startFace       970414;
    }
    sphere81
    {
        type            wall;
        inGroups        1(wall);
        nFaces          0;
        startFace       970414;
    }
    sphere82
    {
        type            wall;
        inGroups        1(wall);
        nFaces          4764;
        startFace       970414;
    }
    sphere83
    {
        type            wall;
        inGroups        1(wall);
        nFaces          0;
        startFace       975178;
    }
    sphere84
    {
        type            wall;
        inGroups        1(wall);
        nFaces          1029;
        startFace       975178;
    }
    sphere85
    {
        type            wall;
        inGroups        1(wall);
        nFaces          18375;
        startFace       976207;
    }
    sphere86
    {
        type            wall;
        inGroups        1(wall);
        nFaces          6906;
        startFace       994582;
    }
    sphere87
    {
        type            wall;
        inGroups        1(wall);
        nFaces          0;
        startFace       1001488;
    }
    sphere88
    {
        type            wall;
        inGroups        1(wall);
        nFaces          0;
        startFace       1001488;
    }
    sphere89
    {
        type            wall;
        inGroups        1(wall);
        nFaces          0;
        startFace       1001488;
    }
    sphere90
    {
        type            wall;
        inGroups        1(wall);
        nFaces          0;
        startFace       1001488;
    }
    sphere91
    {
        type            wall;
        inGroups        1(wall);
        nFaces          3316;
        startFace       1001488;
    }
    sphere92
    {
        type            wall;
        inGroups        1(wall);
        nFaces          0;
        startFace       1004804;
    }
    sphere93
    {
        type            wall;
        inGroups        1(wall);
        nFaces          21992;
        startFace       1004804;
    }
    sphere94
    {
        type            wall;
        inGroups        1(wall);
        nFaces          0;
        startFace       1026796;
    }
    sphere95
    {
        type            wall;
        inGroups        1(wall);
        nFaces          0;
        startFace       1026796;
    }
    sphere96
    {
        type            wall;
        inGroups        1(wall);
        nFaces          0;
        startFace       1026796;
    }
    sphere97
    {
        type            wall;
        inGroups        1(wall);
        nFaces          0;
        startFace       1026796;
    }
    sphere98
    {
        type            wall;
        inGroups        1(wall);
        nFaces          0;
        startFace       1026796;
    }
    sphere99
    {
        type            wall;
        inGroups        1(wall);
        nFaces          9339;
        startFace       1026796;
    }
    sphere100
    {
        type            wall;
        inGroups        1(wall);
        nFaces          0;
        startFace       1036135;
    }
    sphere101
    {
        type            wall;
        inGroups        1(wall);
        nFaces          0;
        startFace       1036135;
    }
    sphere102
    {
        type            wall;
        inGroups        1(wall);
        nFaces          0;
        startFace       1036135;
    }
    sphere103
    {
        type            wall;
        inGroups        1(wall);
        nFaces          3989;
        startFace       1036135;
    }
    sphere104
    {
        type            wall;
        inGroups        1(wall);
        nFaces          2474;
        startFace       1040124;
    }
    sphere105
    {
        type            wall;
        inGroups        1(wall);
        nFaces          2088;
        startFace       1042598;
    }
    sphere106
    {
        type            wall;
        inGroups        1(wall);
        nFaces          0;
        startFace       1044686;
    }
    sphere107
    {
        type            wall;
        inGroups        1(wall);
        nFaces          0;
        startFace       1044686;
    }
    sphere108
    {
        type            wall;
        inGroups        1(wall);
        nFaces          0;
        startFace       1044686;
    }
    sphere109
    {
        type            wall;
        inGroups        1(wall);
        nFaces          4380;
        startFace       1044686;
    }
    sphere110
    {
        type            wall;
        inGroups        1(wall);
        nFaces          0;
        startFace       1049066;
    }
    sphere111
    {
        type            wall;
        inGroups        1(wall);
        nFaces          0;
        startFace       1049066;
    }
    sphere112
    {
        type            wall;
        inGroups        1(wall);
        nFaces          0;
        startFace       1049066;
    }
    sphere113
    {
        type            wall;
        inGroups        1(wall);
        nFaces          0;
        startFace       1049066;
    }
    sphere114
    {
        type            wall;
        inGroups        1(wall);
        nFaces          0;
        startFace       1049066;
    }
    sphere115
    {
        type            wall;
        inGroups        1(wall);
        nFaces          470;
        startFace       1049066;
    }
    sphere116
    {
        type            wall;
        inGroups        1(wall);
        nFaces          1784;
        startFace       1049536;
    }
    sphere117
    {
        type            wall;
        inGroups        1(wall);
        nFaces          1041;
        startFace       1051320;
    }
    sphere118
    {
        type            wall;
        inGroups        1(wall);
        nFaces          0;
        startFace       1052361;
    }
    sphere119
    {
        type            wall;
        inGroups        1(wall);
        nFaces          0;
        startFace       1052361;
    }
    sphere120
    {
        type            wall;
        inGroups        1(wall);
        nFaces          0;
        startFace       1052361;
    }
    sphere121
    {
        type            wall;
        inGroups        1(wall);
        nFaces          0;
        startFace       1052361;
    }
    sphere122
    {
        type            wall;
        inGroups        1(wall);
        nFaces          0;
        startFace       1052361;
    }
    sphere123
    {
        type            wall;
        inGroups        1(wall);
        nFaces          0;
        startFace       1052361;
    }
    sphere124
    {
        type            wall;
        inGroups        1(wall);
        nFaces          0;
        startFace       1052361;
    }
    sphere125
    {
        type            wall;
        inGroups        1(wall);
        nFaces          2528;
        startFace       1052361;
    }
    sphere126
    {
        type            wall;
        inGroups        1(wall);
        nFaces          0;
        startFace       1054889;
    }
    sphere127
    {
        type            wall;
        inGroups        1(wall);
        nFaces          0;
        startFace       1054889;
    }
    sphere128
    {
        type            wall;
        inGroups        1(wall);
        nFaces          0;
        startFace       1054889;
    }
    sphere129
    {
        type            wall;
        inGroups        1(wall);
        nFaces          0;
        startFace       1054889;
    }
    sphere130
    {
        type            wall;
        inGroups        1(wall);
        nFaces          0;
        startFace       1054889;
    }
    sphere131
    {
        type            wall;
        inGroups        1(wall);
        nFaces          0;
        startFace       1054889;
    }
    sphere132
    {
        type            wall;
        inGroups        1(wall);
        nFaces          6175;
        startFace       1054889;
    }
    sphere133
    {
        type            wall;
        inGroups        1(wall);
        nFaces          0;
        startFace       1061064;
    }
    sphere134
    {
        type            wall;
        inGroups        1(wall);
        nFaces          0;
        startFace       1061064;
    }
    sphere135
    {
        type            wall;
        inGroups        1(wall);
        nFaces          0;
        startFace       1061064;
    }
    sphere136
    {
        type            wall;
        inGroups        1(wall);
        nFaces          0;
        startFace       1061064;
    }
    sphere137
    {
        type            wall;
        inGroups        1(wall);
        nFaces          0;
        startFace       1061064;
    }
    sphere138
    {
        type            wall;
        inGroups        1(wall);
        nFaces          0;
        startFace       1061064;
    }
    sphere139
    {
        type            wall;
        inGroups        1(wall);
        nFaces          0;
        startFace       1061064;
    }
    sphere140
    {
        type            wall;
        inGroups        1(wall);
        nFaces          0;
        startFace       1061064;
    }
    sphere141
    {
        type            wall;
        inGroups        1(wall);
        nFaces          0;
        startFace       1061064;
    }
    sphere142
    {
        type            wall;
        inGroups        1(wall);
        nFaces          0;
        startFace       1061064;
    }
    sphere143
    {
        type            wall;
        inGroups        1(wall);
        nFaces          0;
        startFace       1061064;
    }
    sphere144
    {
        type            wall;
        inGroups        1(wall);
        nFaces          382;
        startFace       1061064;
    }
    sphere145
    {
        type            wall;
        inGroups        1(wall);
        nFaces          0;
        startFace       1061446;
    }
    sphere146
    {
        type            wall;
        inGroups        1(wall);
        nFaces          0;
        startFace       1061446;
    }
    sphere147
    {
        type            wall;
        inGroups        1(wall);
        nFaces          0;
        startFace       1061446;
    }
    sphere148
    {
        type            wall;
        inGroups        1(wall);
        nFaces          0;
        startFace       1061446;
    }
    sphere149
    {
        type            wall;
        inGroups        1(wall);
        nFaces          0;
        startFace       1061446;
    }
    sphere150
    {
        type            wall;
        inGroups        1(wall);
        nFaces          0;
        startFace       1061446;
    }
    sphere151
    {
        type            wall;
        inGroups        1(wall);
        nFaces          0;
        startFace       1061446;
    }
    sphere152
    {
        type            wall;
        inGroups        1(wall);
        nFaces          0;
        startFace       1061446;
    }
    sphere153
    {
        type            wall;
        inGroups        1(wall);
        nFaces          0;
        startFace       1061446;
    }
    sphere154
    {
        type            wall;
        inGroups        1(wall);
        nFaces          0;
        startFace       1061446;
    }
    sphere155
    {
        type            wall;
        inGroups        1(wall);
        nFaces          0;
        startFace       1061446;
    }
    sphere156
    {
        type            wall;
        inGroups        1(wall);
        nFaces          4;
        startFace       1061446;
    }
    sphere157
    {
        type            wall;
        inGroups        1(wall);
        nFaces          0;
        startFace       1061450;
    }
    sphere158
    {
        type            wall;
        inGroups        1(wall);
        nFaces          0;
        startFace       1061450;
    }
    sphere159
    {
        type            wall;
        inGroups        1(wall);
        nFaces          3524;
        startFace       1061450;
    }
    sphere160
    {
        type            wall;
        inGroups        1(wall);
        nFaces          735;
        startFace       1064974;
    }
    sphere161
    {
        type            wall;
        inGroups        1(wall);
        nFaces          0;
        startFace       1065709;
    }
    sphere162
    {
        type            wall;
        inGroups        1(wall);
        nFaces          10183;
        startFace       1065709;
    }
    sphere163
    {
        type            wall;
        inGroups        1(wall);
        nFaces          0;
        startFace       1075892;
    }
    sphere164
    {
        type            wall;
        inGroups        1(wall);
        nFaces          0;
        startFace       1075892;
    }
    sphere165
    {
        type            wall;
        inGroups        1(wall);
        nFaces          0;
        startFace       1075892;
    }
    sphere166
    {
        type            wall;
        inGroups        1(wall);
        nFaces          1886;
        startFace       1075892;
    }
    sphere167
    {
        type            wall;
        inGroups        1(wall);
        nFaces          0;
        startFace       1077778;
    }
    sphere168
    {
        type            wall;
        inGroups        1(wall);
        nFaces          0;
        startFace       1077778;
    }
    sphere169
    {
        type            wall;
        inGroups        1(wall);
        nFaces          0;
        startFace       1077778;
    }
    sphere170
    {
        type            wall;
        inGroups        1(wall);
        nFaces          0;
        startFace       1077778;
    }
    sphere171
    {
        type            wall;
        inGroups        1(wall);
        nFaces          0;
        startFace       1077778;
    }
    sphere172
    {
        type            wall;
        inGroups        1(wall);
        nFaces          0;
        startFace       1077778;
    }
    sphere173
    {
        type            wall;
        inGroups        1(wall);
        nFaces          0;
        startFace       1077778;
    }
    sphere174
    {
        type            wall;
        inGroups        1(wall);
        nFaces          0;
        startFace       1077778;
    }
    sphere175
    {
        type            wall;
        inGroups        1(wall);
        nFaces          0;
        startFace       1077778;
    }
    sphere176
    {
        type            wall;
        inGroups        1(wall);
        nFaces          1681;
        startFace       1077778;
    }
    sphere177
    {
        type            wall;
        inGroups        1(wall);
        nFaces          1049;
        startFace       1079459;
    }
    sphere178
    {
        type            wall;
        inGroups        1(wall);
        nFaces          0;
        startFace       1080508;
    }
    sphere179
    {
        type            wall;
        inGroups        1(wall);
        nFaces          0;
        startFace       1080508;
    }
    sphere180
    {
        type            wall;
        inGroups        1(wall);
        nFaces          0;
        startFace       1080508;
    }
    procBoundary2to0
    {
        type            processor;
        inGroups        1(processor);
        nFaces          2645;
        startFace       1080508;
        matchTolerance  0.0001;
        transform       unknown;
        myProcNo        2;
        neighbProcNo    0;
    }
    procBoundary2to3
    {
        type            processor;
        inGroups        1(processor);
        nFaces          2440;
        startFace       1083153;
        matchTolerance  0.0001;
        transform       unknown;
        myProcNo        2;
        neighbProcNo    3;
    }
    procBoundary2to6
    {
        type            processor;
        inGroups        1(processor);
        nFaces          3180;
        startFace       1085593;
        matchTolerance  0.0001;
        transform       unknown;
        myProcNo        2;
        neighbProcNo    6;
    }
)

// ************************************************************************* //
