/*--------------------------------*- C++ -*----------------------------------*\
| =========                 |                                                 |
| \\      /  F ield         | OpenFOAM: The Open Source CFD Toolbox           |
|  \\    /   O peration     | Version:  5                                     |
|   \\  /    A nd           | Web:      www.OpenFOAM.org                      |
|    \\/     M anipulation  |                                                 |
\*---------------------------------------------------------------------------*/
FoamFile
{
    version     2.0;
    format      ascii;
    class       dictionary;
    object      snappyHexMeshDict;
}
// * * * * * * * * * * * * * * * * * * * * * * * * * * * * * * * * * * * * * //

// Which of the steps to run
castellatedMesh true;
snap            true;
addLayers       false;


// Geometry. Definition of all surfaces. All surfaces are of class
// searchableSurface.
// Surfaces are used
// - to specify refinement for any mesh cell intersecting it
// - to specify refinement for any mesh cell inside/outside/near
// - to 'snap' the mesh boundary to the surface
geometry
{
	 sphere1 
 	 { 
 	 	 type searchableSphere; 
 	 	 centre  ( 1.227660e-01 3.698730e-01 1.300886e-01 ); 
 	 	 radius  4.888480e-02; 
 	 } 
 
	 sphere2 
 	 { 
 	 	 type searchableSphere; 
 	 	 centre  ( 3.013764e-02 4.448952e-01 4.124496e-01 ); 
 	 	 radius  5.680058e-02; 
 	 } 
 
	 sphere3 
 	 { 
 	 	 type searchableSphere; 
 	 	 centre  ( 3.178790e-01 2.424277e-01 3.727745e-01 ); 
 	 	 radius  5.144258e-02; 
 	 } 
 
	 sphere4 
 	 { 
 	 	 type searchableSphere; 
 	 	 centre  ( 3.574706e-01 3.585212e-01 4.215265e-01 ); 
 	 	 radius  8.052493e-02; 
 	 } 
 
	 sphere5 
 	 { 
 	 	 type searchableSphere; 
 	 	 centre  ( 3.496965e-01 2.679998e-01 1.014915e-01 ); 
 	 	 radius  5.867005e-02; 
 	 } 
 
	 sphere6 
 	 { 
 	 	 type searchableSphere; 
 	 	 centre  ( 1.795993e-01 2.257645e-01 3.832568e-01 ); 
 	 	 radius  5.709150e-02; 
 	 } 
 
	 sphere7 
 	 { 
 	 	 type searchableSphere; 
 	 	 centre  ( 1.468436e-01 4.062284e-01 2.412917e-01 ); 
 	 	 radius  6.996639e-02; 
 	 } 
 
	 sphere8 
 	 { 
 	 	 type searchableSphere; 
 	 	 centre  ( 5.107006e-01 3.289835e-01 4.380911e-01 ); 
 	 	 radius  6.632291e-02; 
 	 } 
 
	 sphere9 
 	 { 
 	 	 type searchableSphere; 
 	 	 centre  ( 5.000663e-01 4.189693e-01 2.372106e-01 ); 
 	 	 radius  5.492660e-02; 
 	 } 
 
	 sphere10 
 	 { 
 	 	 type searchableSphere; 
 	 	 centre  ( 1.031942e-01 2.620163e-01 4.690935e-01 ); 
 	 	 radius  6.339723e-02; 
 	 } 
 
	 sphere11 
 	 { 
 	 	 type searchableSphere; 
 	 	 centre  ( 1.782032e-01 4.406956e-02 5.357797e-02 ); 
 	 	 radius  5.165752e-02; 
 	 } 
 
	 sphere12 
 	 { 
 	 	 type searchableSphere; 
 	 	 centre  ( 2.536965e-01 1.814664e-01 2.991756e-01 ); 
 	 	 radius  6.340573e-02; 
 	 } 
 
	 sphere13 
 	 { 
 	 	 type searchableSphere; 
 	 	 centre  ( 2.743638e-01 5.112100e-02 4.163248e-01 ); 
 	 	 radius  4.737472e-02; 
 	 } 
 
	 sphere14 
 	 { 
 	 	 type searchableSphere; 
 	 	 centre  ( 7.228207e-02 4.086115e-02 3.929060e-01 ); 
 	 	 radius  6.275791e-02; 
 	 } 
 
	 sphere15 
 	 { 
 	 	 type searchableSphere; 
 	 	 centre  ( 4.287885e-01 2.820788e-01 4.557479e-01 ); 
 	 	 radius  2.947674e-02; 
 	 } 
 
	 sphere16 
 	 { 
 	 	 type searchableSphere; 
 	 	 centre  ( 3.469393e-01 2.446053e-02 1.820443e-01 ); 
 	 	 radius  6.368765e-02; 
 	 } 
 
	 sphere17 
 	 { 
 	 	 type searchableSphere; 
 	 	 centre  ( 2.472040e-01 2.222596e-01 7.514493e-02 ); 
 	 	 radius  5.661563e-02; 
 	 } 
 
	 sphere18 
 	 { 
 	 	 type searchableSphere; 
 	 	 centre  ( 3.605951e-01 2.261063e-01 4.754123e-01 ); 
 	 	 radius  6.090393e-02; 
 	 } 
 
	 sphere19 
 	 { 
 	 	 type searchableSphere; 
 	 	 centre  ( 5.000300e-01 4.170060e-01 1.405577e-02 ); 
 	 	 radius  5.794776e-02; 
 	 } 
 
	 sphere20 
 	 { 
 	 	 type searchableSphere; 
 	 	 centre  ( 3.170358e-01 1.270872e-01 1.299823e-01 ); 
 	 	 radius  5.412233e-02; 
 	 } 
 
	 sphere21 
 	 { 
 	 	 type searchableSphere; 
 	 	 centre  ( 2.474719e-01 3.363110e-01 1.649976e-01 ); 
 	 	 radius  7.434816e-02; 
 	 } 
 
	 sphere22 
 	 { 
 	 	 type searchableSphere; 
 	 	 centre  ( 1.626194e-01 1.732801e-01 1.403560e-02 ); 
 	 	 radius  5.863806e-02; 
 	 } 
 
	 sphere23 
 	 { 
 	 	 type searchableSphere; 
 	 	 centre  ( 4.970005e-01 1.969824e-01 5.014197e-01 ); 
 	 	 radius  7.716837e-02; 
 	 } 
 
	 sphere24 
 	 { 
 	 	 type searchableSphere; 
 	 	 centre  ( 4.967889e-01 2.392821e-01 2.270156e-01 ); 
 	 	 radius  4.838494e-02; 
 	 } 
 
	 sphere25 
 	 { 
 	 	 type searchableSphere; 
 	 	 centre  ( 1.452466e-01 1.216312e-02 2.958795e-01 ); 
 	 	 radius  6.198262e-02; 
 	 } 
 
	 sphere26 
 	 { 
 	 	 type searchableSphere; 
 	 	 centre  ( 1.264140e-01 4.346174e-01 3.615691e-01 ); 
 	 	 radius  5.242130e-02; 
 	 } 
 
	 sphere27 
 	 { 
 	 	 type searchableSphere; 
 	 	 centre  ( 4.554358e-01 4.192061e-01 3.423456e-01 ); 
 	 	 radius  5.928488e-02; 
 	 } 
 
	 sphere28 
 	 { 
 	 	 type searchableSphere; 
 	 	 centre  ( 1.706655e-01 2.763843e-01 2.718090e-01 ); 
 	 	 radius  6.550064e-02; 
 	 } 
 
	 sphere29 
 	 { 
 	 	 type searchableSphere; 
 	 	 centre  ( 1.718107e-01 1.092692e-01 3.663246e-01 ); 
 	 	 radius  6.087443e-02; 
 	 } 
 
	 sphere30 
 	 { 
 	 	 type searchableSphere; 
 	 	 centre  ( 3.549411e-01 4.925606e-01 3.644908e-01 ); 
 	 	 radius  6.513824e-02; 
 	 } 
 
	 sphere31 
 	 { 
 	 	 type searchableSphere; 
 	 	 centre  ( 1.868450e-01 1.696452e-03 4.035693e-01 ); 
 	 	 radius  5.393138e-02; 
 	 } 
 
	 sphere32 
 	 { 
 	 	 type searchableSphere; 
 	 	 centre  ( 2.743365e-01 4.659554e-01 4.558792e-01 ); 
 	 	 radius  5.958030e-02; 
 	 } 
 
	 sphere33 
 	 { 
 	 	 type searchableSphere; 
 	 	 centre  ( 2.720731e-01 2.104065e-01 1.852977e-01 ); 
 	 	 radius  5.550244e-02; 
 	 } 
 
	 sphere34 
 	 { 
 	 	 type searchableSphere; 
 	 	 centre  ( 2.454422e-01 4.178331e-01 3.395741e-01 ); 
 	 	 radius  6.858277e-02; 
 	 } 
 
	 sphere35 
 	 { 
 	 	 type searchableSphere; 
 	 	 centre  ( 5.046363e-02 8.322609e-02 2.832491e-01 ); 
 	 	 radius  5.671110e-02; 
 	 } 
 
	 sphere36 
 	 { 
 	 	 type searchableSphere; 
 	 	 centre  ( 1.758541e-01 4.461077e-01 1.381216e-01 ); 
 	 	 radius  4.435557e-02; 
 	 } 
 
	 sphere37 
 	 { 
 	 	 type searchableSphere; 
 	 	 centre  ( 7.790961e-02 1.805405e-01 9.350891e-02 ); 
 	 	 radius  5.765184e-02; 
 	 } 
 
	 sphere38 
 	 { 
 	 	 type searchableSphere; 
 	 	 centre  ( 1.188908e-01 5.027405e-01 4.849159e-01 ); 
 	 	 radius  5.287118e-02; 
 	 } 
 
	 sphere39 
 	 { 
 	 	 type searchableSphere; 
 	 	 centre  ( 4.618895e-02 3.020283e-01 6.898162e-02 ); 
 	 	 radius  7.027130e-02; 
 	 } 
 
	 sphere40 
 	 { 
 	 	 type searchableSphere; 
 	 	 centre  ( 2.714845e-01 1.133210e-01 1.991657e-02 ); 
 	 	 radius  6.573407e-02; 
 	 } 
 
	 sphere41 
 	 { 
 	 	 type searchableSphere; 
 	 	 centre  ( 1.969541e-01 1.302879e-01 1.134549e-01 ); 
 	 	 radius  5.497059e-02; 
 	 } 
 
	 sphere42 
 	 { 
 	 	 type searchableSphere; 
 	 	 centre  ( 1.781845e-01 8.006188e-02 4.731734e-01 ); 
 	 	 radius  4.956311e-02; 
 	 } 
 
	 sphere43 
 	 { 
 	 	 type searchableSphere; 
 	 	 centre  ( 2.460670e-01 9.457774e-02 2.016902e-01 ); 
 	 	 radius  5.183897e-02; 
 	 } 
 
	 sphere44 
 	 { 
 	 	 type searchableSphere; 
 	 	 centre  ( 1.770102e-01 3.151917e-01 4.940453e-02 ); 
 	 	 radius  6.265594e-02; 
 	 } 
 
	 sphere45 
 	 { 
 	 	 type searchableSphere; 
 	 	 centre  ( 1.497644e-01 3.428729e-02 1.699161e-01 ); 
 	 	 radius  6.598600e-02; 
 	 } 
 
	 sphere46 
 	 { 
 	 	 type searchableSphere; 
 	 	 centre  ( 4.331137e-01 4.133576e-02 4.229948e-01 ); 
 	 	 radius  5.077077e-02; 
 	 } 
 
	 sphere47 
 	 { 
 	 	 type searchableSphere; 
 	 	 centre  ( 4.785167e-01 2.045234e-01 1.244092e-01 ); 
 	 	 radius  6.146477e-02; 
 	 } 
 
	 sphere48 
 	 { 
 	 	 type searchableSphere; 
 	 	 centre  ( 4.584903e-01 1.440292e-01 2.621567e-01 ); 
 	 	 radius  6.011465e-02; 
 	 } 
 
	 sphere49 
 	 { 
 	 	 type searchableSphere; 
 	 	 centre  ( 4.953848e-01 5.147175e-03 3.692765e-01 ); 
 	 	 radius  3.748349e-02; 
 	 } 
 
	 sphere50 
 	 { 
 	 	 type searchableSphere; 
 	 	 centre  ( 7.149900e-02 7.984038e-02 2.582710e-02 ); 
 	 	 radius  6.382811e-02; 
 	 } 
 
	 sphere51 
 	 { 
 	 	 type searchableSphere; 
 	 	 centre  ( 2.457470e-01 4.837125e-01 2.307273e-01 ); 
 	 	 radius  5.605828e-02; 
 	 } 
 
	 sphere52 
 	 { 
 	 	 type searchableSphere; 
 	 	 centre  ( 4.803145e-01 1.850327e-02 6.037402e-03 ); 
 	 	 radius  5.970076e-02; 
 	 } 
 
	 sphere53 
 	 { 
 	 	 type searchableSphere; 
 	 	 centre  ( 3.554881e-01 3.813605e-01 1.106503e-01 ); 
 	 	 radius  5.464768e-02; 
 	 } 
 
	 sphere54 
 	 { 
 	 	 type searchableSphere; 
 	 	 centre  ( 3.823576e-01 1.966380e-01 1.689264e-01 ); 
 	 	 radius  4.477645e-02; 
 	 } 
 
	 sphere55 
 	 { 
 	 	 type searchableSphere; 
 	 	 centre  ( 1.974077e-01 4.480806e-01 3.410936e-02 ); 
 	 	 radius  6.187865e-02; 
 	 } 
 
	 sphere56 
 	 { 
 	 	 type searchableSphere; 
 	 	 centre  ( 4.089504e-02 4.791630e-01 3.082247e-01 ); 
 	 	 radius  5.308262e-02; 
 	 } 
 
	 sphere57 
 	 { 
 	 	 type searchableSphere; 
 	 	 centre  ( 4.341120e-01 3.161215e-01 2.771309e-02 ); 
 	 	 radius  6.333325e-02; 
 	 } 
 
	 sphere58 
 	 { 
 	 	 type searchableSphere; 
 	 	 centre  ( 2.866552e-01 3.051889e-01 2.886403e-01 ); 
 	 	 radius  5.518653e-02; 
 	 } 
 
	 sphere59 
 	 { 
 	 	 type searchableSphere; 
 	 	 centre  ( 6.432104e-02 1.881320e-01 2.012920e-01 ); 
 	 	 radius  5.123064e-02; 
 	 } 
 
	 sphere60 
 	 { 
 	 	 type searchableSphere; 
 	 	 centre  ( 3.767615e-01 5.259495e-02 6.222657e-02 ); 
 	 	 radius  6.294086e-02; 
 	 } 
 
	 sphere61 
 	 { 
 	 	 type searchableSphere; 
 	 	 centre  ( 3.885647e-01 1.699846e-01 5.879930e-02 ); 
 	 	 radius  5.508056e-02; 
 	 } 
 
	 sphere62 
 	 { 
 	 	 type searchableSphere; 
 	 	 centre  ( 3.574340e-01 2.803037e-01 2.115744e-01 ); 
 	 	 radius  5.236732e-02; 
 	 } 
 
	 sphere63 
 	 { 
 	 	 type searchableSphere; 
 	 	 centre  ( 1.632554e-01 2.325338e-01 1.548696e-01 ); 
 	 	 radius  5.959779e-02; 
 	 } 
 
	 sphere64 
 	 { 
 	 	 type searchableSphere; 
 	 	 centre  ( 4.472763e-01 1.381250e-02 2.711065e-01 ); 
 	 	 radius  7.087263e-02; 
 	 } 
 
	 sphere65 
 	 { 
 	 	 type searchableSphere; 
 	 	 centre  ( 9.148702e-02 1.464797e-01 4.428984e-01 ); 
 	 	 radius  5.562791e-02; 
 	 } 
 
	 sphere66 
 	 { 
 	 	 type searchableSphere; 
 	 	 centre  ( 1.407727e-02 7.878202e-02 1.545595e-01 ); 
 	 	 radius  7.706340e-02; 
 	 } 
 
	 sphere67 
 	 { 
 	 	 type searchableSphere; 
 	 	 centre  ( 4.925562e-01 1.060551e-01 3.648853e-01 ); 
 	 	 radius  5.456920e-02; 
 	 } 
 
	 sphere68 
 	 { 
 	 	 type searchableSphere; 
 	 	 centre  ( 3.722347e-01 1.200425e-01 3.589713e-01 ); 
 	 	 radius  6.653835e-02; 
 	 } 
 
	 sphere69 
 	 { 
 	 	 type searchableSphere; 
 	 	 centre  ( 2.679405e-01 1.562658e-01 4.181281e-01 ); 
 	 	 radius  5.796775e-02; 
 	 } 
 
	 sphere70 
 	 { 
 	 	 type searchableSphere; 
 	 	 centre  ( 4.673974e-01 1.052666e-01 5.617227e-02 ); 
 	 	 radius  4.133091e-02; 
 	 } 
 
	 sphere71 
 	 { 
 	 	 type searchableSphere; 
 	 	 centre  ( 4.575289e-01 3.295282e-01 1.606662e-01 ); 
 	 	 radius  7.024131e-02; 
 	 } 
 
	 sphere72 
 	 { 
 	 	 type searchableSphere; 
 	 	 centre  ( 2.142739e-01 3.675788e-01 4.639312e-01 ); 
 	 	 radius  5.595931e-02; 
 	 } 
 
	 sphere73 
 	 { 
 	 	 type searchableSphere; 
 	 	 centre  ( 3.689903e-01 4.501183e-01 1.692025e-02 ); 
 	 	 radius  6.236252e-02; 
 	 } 
 
	 sphere74 
 	 { 
 	 	 type searchableSphere; 
 	 	 centre  ( 4.465349e-01 3.108592e-01 2.919345e-01 ); 
 	 	 radius  6.051903e-02; 
 	 } 
 
	 sphere75 
 	 { 
 	 	 type searchableSphere; 
 	 	 centre  ( 9.936563e-02 3.874369e-01 4.936676e-01 ); 
 	 	 radius  6.437895e-02; 
 	 } 
 
	 sphere76 
 	 { 
 	 	 type searchableSphere; 
 	 	 centre  ( 2.723838e-01 5.687133e-02 3.065070e-01 ); 
 	 	 radius  6.258945e-02; 
 	 } 
 
	 sphere77 
 	 { 
 	 	 type searchableSphere; 
 	 	 centre  ( 4.422664e-01 4.567553e-01 4.450597e-01 ); 
 	 	 radius  5.086124e-02; 
 	 } 
 
	 sphere78 
 	 { 
 	 	 type searchableSphere; 
 	 	 centre  ( 4.108115e-01 1.142788e-01 1.498167e-01 ); 
 	 	 radius  4.122594e-02; 
 	 } 
 
	 sphere79 
 	 { 
 	 	 type searchableSphere; 
 	 	 centre  ( 3.445227e-01 1.316430e-01 2.376395e-01 ); 
 	 	 radius  5.707400e-02; 
 	 } 
 
	 sphere80 
 	 { 
 	 	 type searchableSphere; 
 	 	 centre  ( 3.772936e-03 8.844612e-02 4.565222e-01 ); 
 	 	 radius  4.213969e-02; 
 	 } 
 
	 sphere81 
 	 { 
 	 	 type searchableSphere; 
 	 	 centre  ( 1.448637e-01 3.326859e-01 3.853196e-01 ); 
 	 	 radius  5.384640e-02; 
 	 } 
 
	 sphere82 
 	 { 
 	 	 type searchableSphere; 
 	 	 centre  ( 3.397769e-02 3.975449e-01 1.565516e-01 ); 
 	 	 radius  3.872664e-02; 
 	 } 
 
	 sphere83 
 	 { 
 	 	 type searchableSphere; 
 	 	 centre  ( 2.826194e-01 2.005829e-03 3.552703e-02 ); 
 	 	 radius  4.720227e-02; 
 	 } 
 
	 sphere84 
 	 { 
 	 	 type searchableSphere; 
 	 	 centre  ( 4.791897e-02 3.568567e-01 3.198120e-01 ); 
 	 	 radius  6.561611e-02; 
 	 } 
 
	 sphere85 
 	 { 
 	 	 type searchableSphere; 
 	 	 centre  ( 6.701181e-02 3.071238e-01 2.032945e-01 ); 
 	 	 radius  6.248648e-02; 
 	 } 
 
	 sphere86 
 	 { 
 	 	 type searchableSphere; 
 	 	 centre  ( 2.759187e-01 4.595710e-01 1.235225e-01 ); 
 	 	 radius  5.765484e-02; 
 	 } 
 
	 sphere87 
 	 { 
 	 	 type searchableSphere; 
 	 	 centre  ( 3.803800e-01 2.188499e-01 2.932629e-01 ); 
 	 	 radius  5.239781e-02; 
 	 } 
 
	 sphere88 
 	 { 
 	 	 type searchableSphere; 
 	 	 centre  ( 2.442390e-01 3.090464e-01 3.829865e-01 ); 
 	 	 radius  4.832645e-02; 
 	 } 
 
	 sphere89 
 	 { 
 	 	 type searchableSphere; 
 	 	 centre  ( 3.928355e-01 1.176965e-01 4.793794e-01 ); 
 	 	 radius  5.223886e-02; 
 	 } 
 
	 sphere90 
 	 { 
 	 	 type searchableSphere; 
 	 	 centre  ( 3.483556e-01 2.815139e-02 4.719992e-01 ); 
 	 	 radius  4.801104e-02; 
 	 } 
 
	 sphere91 
 	 { 
 	 	 type searchableSphere; 
 	 	 centre  ( 2.922343e-01 3.408232e-01 2.753622e-02 ); 
 	 	 radius  5.737592e-02; 
 	 } 
 
	 sphere92 
 	 { 
 	 	 type searchableSphere; 
 	 	 centre  ( 1.506134e-01 1.340999e-01 2.483383e-01 ); 
 	 	 radius  6.088843e-02; 
 	 } 
 
	 sphere93 
 	 { 
 	 	 type searchableSphere; 
 	 	 centre  ( 7.783413e-02 4.707794e-01 8.472058e-02 ); 
 	 	 radius  6.992490e-02; 
 	 } 
 
	 sphere94 
 	 { 
 	 	 type searchableSphere; 
 	 	 centre  ( 2.430350e-01 2.554639e-01 4.773987e-01 ); 
 	 	 radius  6.023661e-02; 
 	 } 
 
	 sphere95 
 	 { 
 	 	 type searchableSphere; 
 	 	 centre  ( 4.428728e-01 2.348278e-01 3.831774e-01 ); 
 	 	 radius  5.825867e-02; 
 	 } 
 
	 sphere96 
 	 { 
 	 	 type searchableSphere; 
 	 	 centre  ( 4.495801e-01 4.683085e-01 1.246254e-01 ); 
 	 	 radius  7.335394e-02; 
 	 } 
 
	 sphere97 
 	 { 
 	 	 type searchableSphere; 
 	 	 centre  ( 2.574402e-01 4.658725e-02 1.169588e-01 ); 
 	 	 radius  4.536178e-02; 
 	 } 
 
	 sphere98 
 	 { 
 	 	 type searchableSphere; 
 	 	 centre  ( 5.410915e-02 2.116256e-01 3.299742e-01 ); 
 	 	 radius  7.996458e-02; 
 	 } 
 
	 sphere99 
 	 { 
 	 	 type searchableSphere; 
 	 	 centre  ( 5.906490e-02 4.845446e-01 2.018953e-01 ); 
 	 	 radius  4.950862e-02; 
 	 } 
 
	 sphere100 
 	 { 
 	 	 type searchableSphere; 
 	 	 centre  ( 3.594089e-01 4.090006e-01 2.422231e-01 ); 
 	 	 radius  7.980163e-02; 
 	 } 
 
	 sphere101 
 	 { 
 	 	 type searchableSphere; 
 	 	 centre  ( 5.443506e-01 4.448952e-01 4.124496e-01 ); 
 	 	 radius  5.680058e-02; 
 	 } 
 
	 sphere102 
 	 { 
 	 	 type searchableSphere; 
 	 	 centre  ( -3.512432e-03 3.289835e-01 4.380911e-01 ); 
 	 	 radius  6.632291e-02; 
 	 } 
 
	 sphere103 
 	 { 
 	 	 type searchableSphere; 
 	 	 centre  ( -1.414669e-02 4.189693e-01 2.372106e-01 ); 
 	 	 radius  5.492660e-02; 
 	 } 
 
	 sphere104 
 	 { 
 	 	 type searchableSphere; 
 	 	 centre  ( 1.031942e-01 2.620163e-01 -4.511953e-02 ); 
 	 	 radius  6.339723e-02; 
 	 } 
 
	 sphere105 
 	 { 
 	 	 type searchableSphere; 
 	 	 centre  ( 1.782032e-01 5.582826e-01 5.357797e-02 ); 
 	 	 radius  5.165752e-02; 
 	 } 
 
	 sphere106 
 	 { 
 	 	 type searchableSphere; 
 	 	 centre  ( 7.228207e-02 5.550741e-01 3.929060e-01 ); 
 	 	 radius  6.275791e-02; 
 	 } 
 
	 sphere107 
 	 { 
 	 	 type searchableSphere; 
 	 	 centre  ( 3.469393e-01 5.386735e-01 1.820443e-01 ); 
 	 	 radius  6.368765e-02; 
 	 } 
 
	 sphere108 
 	 { 
 	 	 type searchableSphere; 
 	 	 centre  ( 3.605951e-01 2.261063e-01 -3.880065e-02 ); 
 	 	 radius  6.090393e-02; 
 	 } 
 
	 sphere109 
 	 { 
 	 	 type searchableSphere; 
 	 	 centre  ( -1.418299e-02 4.170060e-01 1.405577e-02 ); 
 	 	 radius  5.794776e-02; 
 	 } 
 
	 sphere110 
 	 { 
 	 	 type searchableSphere; 
 	 	 centre  ( 5.000300e-01 4.170060e-01 5.282688e-01 ); 
 	 	 radius  5.794776e-02; 
 	 } 
 
	 sphere111 
 	 { 
 	 	 type searchableSphere; 
 	 	 centre  ( -1.418299e-02 4.170060e-01 5.282688e-01 ); 
 	 	 radius  5.794776e-02; 
 	 } 
 
	 sphere112 
 	 { 
 	 	 type searchableSphere; 
 	 	 centre  ( 1.626194e-01 1.732801e-01 5.282486e-01 ); 
 	 	 radius  5.863806e-02; 
 	 } 
 
	 sphere113 
 	 { 
 	 	 type searchableSphere; 
 	 	 centre  ( -1.721248e-02 1.969824e-01 5.014197e-01 ); 
 	 	 radius  7.716837e-02; 
 	 } 
 
	 sphere114 
 	 { 
 	 	 type searchableSphere; 
 	 	 centre  ( 4.970005e-01 1.969824e-01 -1.279330e-02 ); 
 	 	 radius  7.716837e-02; 
 	 } 
 
	 sphere115 
 	 { 
 	 	 type searchableSphere; 
 	 	 centre  ( -1.721248e-02 1.969824e-01 -1.279330e-02 ); 
 	 	 radius  7.716837e-02; 
 	 } 
 
	 sphere116 
 	 { 
 	 	 type searchableSphere; 
 	 	 centre  ( -1.742406e-02 2.392821e-01 2.270156e-01 ); 
 	 	 radius  4.838494e-02; 
 	 } 
 
	 sphere117 
 	 { 
 	 	 type searchableSphere; 
 	 	 centre  ( 1.452466e-01 5.263761e-01 2.958795e-01 ); 
 	 	 radius  6.198262e-02; 
 	 } 
 
	 sphere118 
 	 { 
 	 	 type searchableSphere; 
 	 	 centre  ( -5.877717e-02 4.192061e-01 3.423456e-01 ); 
 	 	 radius  5.928488e-02; 
 	 } 
 
	 sphere119 
 	 { 
 	 	 type searchableSphere; 
 	 	 centre  ( 3.549411e-01 -2.165238e-02 3.644908e-01 ); 
 	 	 radius  6.513824e-02; 
 	 } 
 
	 sphere120 
 	 { 
 	 	 type searchableSphere; 
 	 	 centre  ( 1.868450e-01 5.159095e-01 4.035693e-01 ); 
 	 	 radius  5.393138e-02; 
 	 } 
 
	 sphere121 
 	 { 
 	 	 type searchableSphere; 
 	 	 centre  ( 2.743365e-01 -4.825757e-02 4.558792e-01 ); 
 	 	 radius  5.958030e-02; 
 	 } 
 
	 sphere122 
 	 { 
 	 	 type searchableSphere; 
 	 	 centre  ( 2.743365e-01 4.659554e-01 -5.833377e-02 ); 
 	 	 radius  5.958030e-02; 
 	 } 
 
	 sphere123 
 	 { 
 	 	 type searchableSphere; 
 	 	 centre  ( 5.646766e-01 8.322609e-02 2.832491e-01 ); 
 	 	 radius  5.671110e-02; 
 	 } 
 
	 sphere124 
 	 { 
 	 	 type searchableSphere; 
 	 	 centre  ( 1.188908e-01 -1.147251e-02 4.849159e-01 ); 
 	 	 radius  5.287118e-02; 
 	 } 
 
	 sphere125 
 	 { 
 	 	 type searchableSphere; 
 	 	 centre  ( 1.188908e-01 5.027405e-01 -2.929713e-02 ); 
 	 	 radius  5.287118e-02; 
 	 } 
 
	 sphere126 
 	 { 
 	 	 type searchableSphere; 
 	 	 centre  ( 1.188908e-01 -1.147251e-02 -2.929713e-02 ); 
 	 	 radius  5.287118e-02; 
 	 } 
 
	 sphere127 
 	 { 
 	 	 type searchableSphere; 
 	 	 centre  ( 5.604019e-01 3.020283e-01 6.898162e-02 ); 
 	 	 radius  7.027130e-02; 
 	 } 
 
	 sphere128 
 	 { 
 	 	 type searchableSphere; 
 	 	 centre  ( 4.618895e-02 3.020283e-01 5.831946e-01 ); 
 	 	 radius  7.027130e-02; 
 	 } 
 
	 sphere129 
 	 { 
 	 	 type searchableSphere; 
 	 	 centre  ( 2.714845e-01 1.133210e-01 5.341296e-01 ); 
 	 	 radius  6.573407e-02; 
 	 } 
 
	 sphere130 
 	 { 
 	 	 type searchableSphere; 
 	 	 centre  ( 1.781845e-01 8.006188e-02 -4.103960e-02 ); 
 	 	 radius  4.956311e-02; 
 	 } 
 
	 sphere131 
 	 { 
 	 	 type searchableSphere; 
 	 	 centre  ( 1.770102e-01 3.151917e-01 5.636175e-01 ); 
 	 	 radius  6.265594e-02; 
 	 } 
 
	 sphere132 
 	 { 
 	 	 type searchableSphere; 
 	 	 centre  ( 1.497644e-01 5.485003e-01 1.699161e-01 ); 
 	 	 radius  6.598600e-02; 
 	 } 
 
	 sphere133 
 	 { 
 	 	 type searchableSphere; 
 	 	 centre  ( 4.331137e-01 5.555488e-01 4.229948e-01 ); 
 	 	 radius  5.077077e-02; 
 	 } 
 
	 sphere134 
 	 { 
 	 	 type searchableSphere; 
 	 	 centre  ( -3.569628e-02 2.045234e-01 1.244092e-01 ); 
 	 	 radius  6.146477e-02; 
 	 } 
 
	 sphere135 
 	 { 
 	 	 type searchableSphere; 
 	 	 centre  ( -5.572274e-02 1.440292e-01 2.621567e-01 ); 
 	 	 radius  6.011465e-02; 
 	 } 
 
	 sphere136 
 	 { 
 	 	 type searchableSphere; 
 	 	 centre  ( -1.882819e-02 5.147175e-03 3.692765e-01 ); 
 	 	 radius  3.748349e-02; 
 	 } 
 
	 sphere137 
 	 { 
 	 	 type searchableSphere; 
 	 	 centre  ( 4.953848e-01 5.193602e-01 3.692765e-01 ); 
 	 	 radius  3.748349e-02; 
 	 } 
 
	 sphere138 
 	 { 
 	 	 type searchableSphere; 
 	 	 centre  ( -1.882819e-02 5.193602e-01 3.692765e-01 ); 
 	 	 radius  3.748349e-02; 
 	 } 
 
	 sphere139 
 	 { 
 	 	 type searchableSphere; 
 	 	 centre  ( 7.149900e-02 7.984038e-02 5.400401e-01 ); 
 	 	 radius  6.382811e-02; 
 	 } 
 
	 sphere140 
 	 { 
 	 	 type searchableSphere; 
 	 	 centre  ( 2.457470e-01 -3.050049e-02 2.307273e-01 ); 
 	 	 radius  5.605828e-02; 
 	 } 
 
	 sphere141 
 	 { 
 	 	 type searchableSphere; 
 	 	 centre  ( -3.389851e-02 1.850327e-02 6.037402e-03 ); 
 	 	 radius  5.970076e-02; 
 	 } 
 
	 sphere142 
 	 { 
 	 	 type searchableSphere; 
 	 	 centre  ( 4.803145e-01 5.327163e-01 6.037402e-03 ); 
 	 	 radius  5.970076e-02; 
 	 } 
 
	 sphere143 
 	 { 
 	 	 type searchableSphere; 
 	 	 centre  ( 4.803145e-01 1.850327e-02 5.202504e-01 ); 
 	 	 radius  5.970076e-02; 
 	 } 
 
	 sphere144 
 	 { 
 	 	 type searchableSphere; 
 	 	 centre  ( -3.389851e-02 5.327163e-01 6.037402e-03 ); 
 	 	 radius  5.970076e-02; 
 	 } 
 
	 sphere145 
 	 { 
 	 	 type searchableSphere; 
 	 	 centre  ( -3.389851e-02 1.850327e-02 5.202504e-01 ); 
 	 	 radius  5.970076e-02; 
 	 } 
 
	 sphere146 
 	 { 
 	 	 type searchableSphere; 
 	 	 centre  ( 4.803145e-01 5.327163e-01 5.202504e-01 ); 
 	 	 radius  5.970076e-02; 
 	 } 
 
	 sphere147 
 	 { 
 	 	 type searchableSphere; 
 	 	 centre  ( -3.389851e-02 5.327163e-01 5.202504e-01 ); 
 	 	 radius  5.970076e-02; 
 	 } 
 
	 sphere148 
 	 { 
 	 	 type searchableSphere; 
 	 	 centre  ( 1.974077e-01 4.480806e-01 5.483224e-01 ); 
 	 	 radius  6.187865e-02; 
 	 } 
 
	 sphere149 
 	 { 
 	 	 type searchableSphere; 
 	 	 centre  ( 5.551080e-01 4.791630e-01 3.082247e-01 ); 
 	 	 radius  5.308262e-02; 
 	 } 
 
	 sphere150 
 	 { 
 	 	 type searchableSphere; 
 	 	 centre  ( 4.089504e-02 -3.505001e-02 3.082247e-01 ); 
 	 	 radius  5.308262e-02; 
 	 } 
 
	 sphere151 
 	 { 
 	 	 type searchableSphere; 
 	 	 centre  ( 4.341120e-01 3.161215e-01 5.419261e-01 ); 
 	 	 radius  6.333325e-02; 
 	 } 
 
	 sphere152 
 	 { 
 	 	 type searchableSphere; 
 	 	 centre  ( 3.767615e-01 5.668080e-01 6.222657e-02 ); 
 	 	 radius  6.294086e-02; 
 	 } 
 
	 sphere153 
 	 { 
 	 	 type searchableSphere; 
 	 	 centre  ( 3.767615e-01 5.259495e-02 5.764396e-01 ); 
 	 	 radius  6.294086e-02; 
 	 } 
 
	 sphere154 
 	 { 
 	 	 type searchableSphere; 
 	 	 centre  ( -6.693669e-02 1.381250e-02 2.711065e-01 ); 
 	 	 radius  7.087263e-02; 
 	 } 
 
	 sphere155 
 	 { 
 	 	 type searchableSphere; 
 	 	 centre  ( 4.472763e-01 5.280255e-01 2.711065e-01 ); 
 	 	 radius  7.087263e-02; 
 	 } 
 
	 sphere156 
 	 { 
 	 	 type searchableSphere; 
 	 	 centre  ( -6.693669e-02 5.280255e-01 2.711065e-01 ); 
 	 	 radius  7.087263e-02; 
 	 } 
 
	 sphere157 
 	 { 
 	 	 type searchableSphere; 
 	 	 centre  ( 5.282903e-01 7.878202e-02 1.545595e-01 ); 
 	 	 radius  7.706340e-02; 
 	 } 
 
	 sphere158 
 	 { 
 	 	 type searchableSphere; 
 	 	 centre  ( -2.165684e-02 1.060551e-01 3.648853e-01 ); 
 	 	 radius  5.456920e-02; 
 	 } 
 
	 sphere159 
 	 { 
 	 	 type searchableSphere; 
 	 	 centre  ( -5.668410e-02 3.295282e-01 1.606662e-01 ); 
 	 	 radius  7.024131e-02; 
 	 } 
 
	 sphere160 
 	 { 
 	 	 type searchableSphere; 
 	 	 centre  ( 2.142739e-01 3.675788e-01 -5.028183e-02 ); 
 	 	 radius  5.595931e-02; 
 	 } 
 
	 sphere161 
 	 { 
 	 	 type searchableSphere; 
 	 	 centre  ( 3.689903e-01 4.501183e-01 5.311332e-01 ); 
 	 	 radius  6.236252e-02; 
 	 } 
 
	 sphere162 
 	 { 
 	 	 type searchableSphere; 
 	 	 centre  ( 9.936563e-02 3.874369e-01 -2.054541e-02 ); 
 	 	 radius  6.437895e-02; 
 	 } 
 
	 sphere163 
 	 { 
 	 	 type searchableSphere; 
 	 	 centre  ( 2.723838e-01 5.710843e-01 3.065070e-01 ); 
 	 	 radius  6.258945e-02; 
 	 } 
 
	 sphere164 
 	 { 
 	 	 type searchableSphere; 
 	 	 centre  ( 5.179859e-01 8.844612e-02 4.565222e-01 ); 
 	 	 radius  4.213969e-02; 
 	 } 
 
	 sphere165 
 	 { 
 	 	 type searchableSphere; 
 	 	 centre  ( 5.481907e-01 3.975449e-01 1.565516e-01 ); 
 	 	 radius  3.872664e-02; 
 	 } 
 
	 sphere166 
 	 { 
 	 	 type searchableSphere; 
 	 	 centre  ( 2.826194e-01 5.162188e-01 3.552703e-02 ); 
 	 	 radius  4.720227e-02; 
 	 } 
 
	 sphere167 
 	 { 
 	 	 type searchableSphere; 
 	 	 centre  ( 2.826194e-01 2.005829e-03 5.497400e-01 ); 
 	 	 radius  4.720227e-02; 
 	 } 
 
	 sphere168 
 	 { 
 	 	 type searchableSphere; 
 	 	 centre  ( 2.826194e-01 5.162188e-01 5.497400e-01 ); 
 	 	 radius  4.720227e-02; 
 	 } 
 
	 sphere169 
 	 { 
 	 	 type searchableSphere; 
 	 	 centre  ( 5.621320e-01 3.568567e-01 3.198120e-01 ); 
 	 	 radius  6.561611e-02; 
 	 } 
 
	 sphere170 
 	 { 
 	 	 type searchableSphere; 
 	 	 centre  ( 2.759187e-01 -5.464205e-02 1.235225e-01 ); 
 	 	 radius  5.765484e-02; 
 	 } 
 
	 sphere171 
 	 { 
 	 	 type searchableSphere; 
 	 	 centre  ( 3.928355e-01 1.176965e-01 -3.483363e-02 ); 
 	 	 radius  5.223886e-02; 
 	 } 
 
	 sphere172 
 	 { 
 	 	 type searchableSphere; 
 	 	 centre  ( 3.483556e-01 5.423644e-01 4.719992e-01 ); 
 	 	 radius  4.801104e-02; 
 	 } 
 
	 sphere173 
 	 { 
 	 	 type searchableSphere; 
 	 	 centre  ( 3.483556e-01 2.815139e-02 -4.221381e-02 ); 
 	 	 radius  4.801104e-02; 
 	 } 
 
	 sphere174 
 	 { 
 	 	 type searchableSphere; 
 	 	 centre  ( 2.922343e-01 3.408232e-01 5.417492e-01 ); 
 	 	 radius  5.737592e-02; 
 	 } 
 
	 sphere175 
 	 { 
 	 	 type searchableSphere; 
 	 	 centre  ( 7.783413e-02 -4.343364e-02 8.472058e-02 ); 
 	 	 radius  6.992490e-02; 
 	 } 
 
	 sphere176 
 	 { 
 	 	 type searchableSphere; 
 	 	 centre  ( 2.430350e-01 2.554639e-01 -3.681427e-02 ); 
 	 	 radius  6.023661e-02; 
 	 } 
 
	 sphere177 
 	 { 
 	 	 type searchableSphere; 
 	 	 centre  ( -6.463286e-02 4.683085e-01 1.246254e-01 ); 
 	 	 radius  7.335394e-02; 
 	 } 
 
	 sphere178 
 	 { 
 	 	 type searchableSphere; 
 	 	 centre  ( 4.495801e-01 -4.590449e-02 1.246254e-01 ); 
 	 	 radius  7.335394e-02; 
 	 } 
 
	 sphere179 
 	 { 
 	 	 type searchableSphere; 
 	 	 centre  ( 5.683221e-01 2.116256e-01 3.299742e-01 ); 
 	 	 radius  7.996458e-02; 
 	 } 
 
	 sphere180 
 	 { 
 	 	 type searchableSphere; 
 	 	 centre  ( 5.906490e-02 -2.966841e-02 2.018953e-01 ); 
 	 	 radius  4.950862e-02; 
 	 } 
 
};

// Settings for the castellatedMesh generation.
castellatedMeshControls
{
    maxLocalCells 10000000;
    maxGlobalCells 200000000;
    minRefinementCells 0;
    nCellsBetweenLevels 1;

    features
    (
    );

    refinementSurfaces
    {
	 sphere1 { level ( 1 3 );  } 
	 sphere2 { level ( 1 3 );  } 
	 sphere3 { level ( 1 3 );  } 
	 sphere4 { level ( 1 3 );  } 
	 sphere5 { level ( 1 3 );  } 
	 sphere6 { level ( 1 3 );  } 
	 sphere7 { level ( 1 3 );  } 
	 sphere8 { level ( 1 3 );  } 
	 sphere9 { level ( 1 3 );  } 
	 sphere10 { level ( 1 3 );  } 
	 sphere11 { level ( 1 3 );  } 
	 sphere12 { level ( 1 3 );  } 
	 sphere13 { level ( 1 3 );  } 
	 sphere14 { level ( 1 3 );  } 
	 sphere15 { level ( 1 3 );  } 
	 sphere16 { level ( 1 3 );  } 
	 sphere17 { level ( 1 3 );  } 
	 sphere18 { level ( 1 3 );  } 
	 sphere19 { level ( 1 3 );  } 
	 sphere20 { level ( 1 3 );  } 
	 sphere21 { level ( 1 3 );  } 
	 sphere22 { level ( 1 3 );  } 
	 sphere23 { level ( 1 3 );  } 
	 sphere24 { level ( 1 3 );  } 
	 sphere25 { level ( 1 3 );  } 
	 sphere26 { level ( 1 3 );  } 
	 sphere27 { level ( 1 3 );  } 
	 sphere28 { level ( 1 3 );  } 
	 sphere29 { level ( 1 3 );  } 
	 sphere30 { level ( 1 3 );  } 
	 sphere31 { level ( 1 3 );  } 
	 sphere32 { level ( 1 3 );  } 
	 sphere33 { level ( 1 3 );  } 
	 sphere34 { level ( 1 3 );  } 
	 sphere35 { level ( 1 3 );  } 
	 sphere36 { level ( 1 3 );  } 
	 sphere37 { level ( 1 3 );  } 
	 sphere38 { level ( 1 3 );  } 
	 sphere39 { level ( 1 3 );  } 
	 sphere40 { level ( 1 3 );  } 
	 sphere41 { level ( 1 3 );  } 
	 sphere42 { level ( 1 3 );  } 
	 sphere43 { level ( 1 3 );  } 
	 sphere44 { level ( 1 3 );  } 
	 sphere45 { level ( 1 3 );  } 
	 sphere46 { level ( 1 3 );  } 
	 sphere47 { level ( 1 3 );  } 
	 sphere48 { level ( 1 3 );  } 
	 sphere49 { level ( 1 3 );  } 
	 sphere50 { level ( 1 3 );  } 
	 sphere51 { level ( 1 3 );  } 
	 sphere52 { level ( 1 3 );  } 
	 sphere53 { level ( 1 3 );  } 
	 sphere54 { level ( 1 3 );  } 
	 sphere55 { level ( 1 3 );  } 
	 sphere56 { level ( 1 3 );  } 
	 sphere57 { level ( 1 3 );  } 
	 sphere58 { level ( 1 3 );  } 
	 sphere59 { level ( 1 3 );  } 
	 sphere60 { level ( 1 3 );  } 
	 sphere61 { level ( 1 3 );  } 
	 sphere62 { level ( 1 3 );  } 
	 sphere63 { level ( 1 3 );  } 
	 sphere64 { level ( 1 3 );  } 
	 sphere65 { level ( 1 3 );  } 
	 sphere66 { level ( 1 3 );  } 
	 sphere67 { level ( 1 3 );  } 
	 sphere68 { level ( 1 3 );  } 
	 sphere69 { level ( 1 3 );  } 
	 sphere70 { level ( 1 3 );  } 
	 sphere71 { level ( 1 3 );  } 
	 sphere72 { level ( 1 3 );  } 
	 sphere73 { level ( 1 3 );  } 
	 sphere74 { level ( 1 3 );  } 
	 sphere75 { level ( 1 3 );  } 
	 sphere76 { level ( 1 3 );  } 
	 sphere77 { level ( 1 3 );  } 
	 sphere78 { level ( 1 3 );  } 
	 sphere79 { level ( 1 3 );  } 
	 sphere80 { level ( 1 3 );  } 
	 sphere81 { level ( 1 3 );  } 
	 sphere82 { level ( 1 3 );  } 
	 sphere83 { level ( 1 3 );  } 
	 sphere84 { level ( 1 3 );  } 
	 sphere85 { level ( 1 3 );  } 
	 sphere86 { level ( 1 3 );  } 
	 sphere87 { level ( 1 3 );  } 
	 sphere88 { level ( 1 3 );  } 
	 sphere89 { level ( 1 3 );  } 
	 sphere90 { level ( 1 3 );  } 
	 sphere91 { level ( 1 3 );  } 
	 sphere92 { level ( 1 3 );  } 
	 sphere93 { level ( 1 3 );  } 
	 sphere94 { level ( 1 3 );  } 
	 sphere95 { level ( 1 3 );  } 
	 sphere96 { level ( 1 3 );  } 
	 sphere97 { level ( 1 3 );  } 