/*--------------------------------*- C++ -*----------------------------------*\
| =========                 |                                                 |
| \\      /  F ield         | OpenFOAM: The Open Source CFD Toolbox           |
|  \\    /   O peration     | Version:  2206                                  |
|   \\  /    A nd           | Website:  www.openfoam.com                      |
|    \\/     M anipulation  |                                                 |
\*---------------------------------------------------------------------------*/
FoamFile
{
    version     2.0;
    format      ascii;
    arch        "LSB;label=32;scalar=64";
    class       polyBoundaryMesh;
    location    "2/polyMesh";
    object      boundary;
}
// * * * * * * * * * * * * * * * * * * * * * * * * * * * * * * * * * * * * * //

190
(
    inlet
    {
        type            patch;
        nFaces          1978;
        startFace       878428;
    }
    outlet
    {
        type            patch;
        nFaces          0;
        startFace       880406;
    }
    xpositive
    {
        type            wall;
        inGroups        1(wall);
        nFaces          0;
        startFace       880406;
    }
    xnegative
    {
        type            wall;
        inGroups        1(wall);
        nFaces          1998;
        startFace       880406;
    }
    ypositive
    {
        type            wall;
        inGroups        1(wall);
        nFaces          1918;
        startFace       882404;
    }
    ynegative
    {
        type            wall;
        inGroups        1(wall);
        nFaces          0;
        startFace       884322;
    }
    sphere1
    {
        type            wall;
        inGroups        1(wall);
        nFaces          0;
        startFace       884322;
    }
    sphere2
    {
        type            wall;
        inGroups        1(wall);
        nFaces          0;
        startFace       884322;
    }
    sphere3
    {
        type            wall;
        inGroups        1(wall);
        nFaces          0;
        startFace       884322;
    }
    sphere4
    {
        type            wall;
        inGroups        1(wall);
        nFaces          0;
        startFace       884322;
    }
    sphere5
    {
        type            wall;
        inGroups        1(wall);
        nFaces          4973;
        startFace       884322;
    }
    sphere6
    {
        type            wall;
        inGroups        1(wall);
        nFaces          0;
        startFace       889295;
    }
    sphere7
    {
        type            wall;
        inGroups        1(wall);
        nFaces          0;
        startFace       889295;
    }
    sphere8
    {
        type            wall;
        inGroups        1(wall);
        nFaces          0;
        startFace       889295;
    }
    sphere9
    {
        type            wall;
        inGroups        1(wall);
        nFaces          0;
        startFace       889295;
    }
    sphere10
    {
        type            wall;
        inGroups        1(wall);
        nFaces          0;
        startFace       889295;
    }
    sphere11
    {
        type            wall;
        inGroups        1(wall);
        nFaces          0;
        startFace       889295;
    }
    sphere12
    {
        type            wall;
        inGroups        1(wall);
        nFaces          1582;
        startFace       889295;
    }
    sphere13
    {
        type            wall;
        inGroups        1(wall);
        nFaces          0;
        startFace       890877;
    }
    sphere14
    {
        type            wall;
        inGroups        1(wall);
        nFaces          0;
        startFace       890877;
    }
    sphere15
    {
        type            wall;
        inGroups        1(wall);
        nFaces          0;
        startFace       890877;
    }
    sphere16
    {
        type            wall;
        inGroups        1(wall);
        nFaces          9224;
        startFace       890877;
    }
    sphere17
    {
        type            wall;
        inGroups        1(wall);
        nFaces          4036;
        startFace       900101;
    }
    sphere18
    {
        type            wall;
        inGroups        1(wall);
        nFaces          0;
        startFace       904137;
    }
    sphere19
    {
        type            wall;
        inGroups        1(wall);
        nFaces          0;
        startFace       904137;
    }
    sphere20
    {
        type            wall;
        inGroups        1(wall);
        nFaces          12355;
        startFace       904137;
    }
    sphere21
    {
        type            wall;
        inGroups        1(wall);
        nFaces          0;
        startFace       916492;
    }
    sphere22
    {
        type            wall;
        inGroups        1(wall);
        nFaces          0;
        startFace       916492;
    }
    sphere23
    {
        type            wall;
        inGroups        1(wall);
        nFaces          0;
        startFace       916492;
    }
    sphere24
    {
        type            wall;
        inGroups        1(wall);
        nFaces          3354;
        startFace       916492;
    }
    sphere25
    {
        type            wall;
        inGroups        1(wall);
        nFaces          0;
        startFace       919846;
    }
    sphere26
    {
        type            wall;
        inGroups        1(wall);
        nFaces          0;
        startFace       919846;
    }
    sphere27
    {
        type            wall;
        inGroups        1(wall);
        nFaces          0;
        startFace       919846;
    }
    sphere28
    {
        type            wall;
        inGroups        1(wall);
        nFaces          0;
        startFace       919846;
    }
    sphere29
    {
        type            wall;
        inGroups        1(wall);
        nFaces          0;
        startFace       919846;
    }
    sphere30
    {
        type            wall;
        inGroups        1(wall);
        nFaces          0;
        startFace       919846;
    }
    sphere31
    {
        type            wall;
        inGroups        1(wall);
        nFaces          0;
        startFace       919846;
    }
    sphere32
    {
        type            wall;
        inGroups        1(wall);
        nFaces          0;
        startFace       919846;
    }
    sphere33
    {
        type            wall;
        inGroups        1(wall);
        nFaces          5259;
        startFace       919846;
    }
    sphere34
    {
        type            wall;
        inGroups        1(wall);
        nFaces          0;
        startFace       925105;
    }
    sphere35
    {
        type            wall;
        inGroups        1(wall);
        nFaces          0;
        startFace       925105;
    }
    sphere36
    {
        type            wall;
        inGroups        1(wall);
        nFaces          0;
        startFace       925105;
    }
    sphere37
    {
        type            wall;
        inGroups        1(wall);
        nFaces          0;
        startFace       925105;
    }
    sphere38
    {
        type            wall;
        inGroups        1(wall);
        nFaces          0;
        startFace       925105;
    }
    sphere39
    {
        type            wall;
        inGroups        1(wall);
        nFaces          0;
        startFace       925105;
    }
    sphere40
    {
        type            wall;
        inGroups        1(wall);
        nFaces          6417;
        startFace       925105;
    }
    sphere41
    {
        type            wall;
        inGroups        1(wall);
        nFaces          0;
        startFace       931522;
    }
    sphere42
    {
        type            wall;
        inGroups        1(wall);
        nFaces          0;
        startFace       931522;
    }
    sphere43
    {
        type            wall;
        inGroups        1(wall);
        nFaces          3768;
        startFace       931522;
    }
    sphere44
    {
        type            wall;
        inGroups        1(wall);
        nFaces          0;
        startFace       935290;
    }
    sphere45
    {
        type            wall;
        inGroups        1(wall);
        nFaces          0;
        startFace       935290;
    }
    sphere46
    {
        type            wall;
        inGroups        1(wall);
        nFaces          0;
        startFace       935290;
    }
    sphere47
    {
        type            wall;
        inGroups        1(wall);
        nFaces          10164;
        startFace       935290;
    }
    sphere48
    {
        type            wall;
        inGroups        1(wall);
        nFaces          4878;
        startFace       945454;
    }
    sphere49
    {
        type            wall;
        inGroups        1(wall);
        nFaces          0;
        startFace       950332;
    }
    sphere50
    {
        type            wall;
        inGroups        1(wall);
        nFaces          0;
        startFace       950332;
    }
    sphere51
    {
        type            wall;
        inGroups        1(wall);
        nFaces          0;
        startFace       950332;
    }
    sphere52
    {
        type            wall;
        inGroups        1(wall);
        nFaces          3380;
        startFace       950332;
    }
    sphere53
    {
        type            wall;
        inGroups        1(wall);
        nFaces          0;
        startFace       953712;
    }
    sphere54
    {
        type            wall;
        inGroups        1(wall);
        nFaces          6688;
        startFace       953712;
    }
    sphere55
    {
        type            wall;
        inGroups        1(wall);
        nFaces          0;
        startFace       960400;
    }
    sphere56
    {
        type            wall;
        inGroups        1(wall);
        nFaces          0;
        startFace       960400;
    }
    sphere57
    {
        type            wall;
        inGroups        1(wall);
        nFaces          461;
        startFace       960400;
    }
    sphere58
    {
        type            wall;
        inGroups        1(wall);
        nFaces          0;
        startFace       960861;
    }
    sphere59
    {
        type            wall;
        inGroups        1(wall);
        nFaces          0;
        startFace       960861;
    }
    sphere60
    {
        type            wall;
        inGroups        1(wall);
        nFaces          14448;
        startFace       960861;
    }
    sphere61
    {
        type            wall;
        inGroups        1(wall);
        nFaces          11494;
        startFace       975309;
    }
    sphere62
    {
        type            wall;
        inGroups        1(wall);
        nFaces          2686;
        startFace       986803;
    }
    sphere63
    {
        type            wall;
        inGroups        1(wall);
        nFaces          0;
        startFace       989489;
    }
    sphere64
    {
        type            wall;
        inGroups        1(wall);
        nFaces          3243;
        startFace       989489;
    }
    sphere65
    {
        type            wall;
        inGroups        1(wall);
        nFaces          0;
        startFace       992732;
    }
    sphere66
    {
        type            wall;
        inGroups        1(wall);
        nFaces          0;
        startFace       992732;
    }
    sphere67
    {
        type            wall;
        inGroups        1(wall);
        nFaces          0;
        startFace       992732;
    }
    sphere68
    {
        type            wall;
        inGroups        1(wall);
        nFaces          0;
        startFace       992732;
    }
    sphere69
    {
        type            wall;
        inGroups        1(wall);
        nFaces          0;
        startFace       992732;
    }
    sphere70
    {
        type            wall;
        inGroups        1(wall);
        nFaces          6088;
        startFace       992732;
    }
    sphere71
    {
        type            wall;
        inGroups        1(wall);
        nFaces          0;
        startFace       998820;
    }
    sphere72
    {
        type            wall;
        inGroups        1(wall);
        nFaces          0;
        startFace       998820;
    }
    sphere73
    {
        type            wall;
        inGroups        1(wall);
        nFaces          0;
        startFace       998820;
    }
    sphere74
    {
        type            wall;
        inGroups        1(wall);
        nFaces          0;
        startFace       998820;
    }
    sphere75
    {
        type            wall;
        inGroups        1(wall);
        nFaces          0;
        startFace       998820;
    }
    sphere76
    {
        type            wall;
        inGroups        1(wall);
        nFaces          1173;
        startFace       998820;
    }
    sphere77
    {
        type            wall;
        inGroups        1(wall);
        nFaces          0;
        startFace       999993;
    }
    sphere78
    {
        type            wall;
        inGroups        1(wall);
        nFaces          4052;
        startFace       999993;
    }
    sphere79
    {
        type            wall;
        inGroups        1(wall);
        nFaces          8332;
        startFace       1004045;
    }
    sphere80
    {
        type            wall;
        inGroups        1(wall);
        nFaces          0;
        startFace       1012377;
    }
    sphere81
    {
        type            wall;
        inGroups        1(wall);
        nFaces          0;
        startFace       1012377;
    }
    sphere82
    {
        type            wall;
        inGroups        1(wall);
        nFaces          0;
        startFace       1012377;
    }
    sphere83
    {
        type            wall;
        inGroups        1(wall);
        nFaces          3474;
        startFace       1012377;
    }
    sphere84
    {
        type            wall;
        inGroups        1(wall);
        nFaces          0;
        startFace       1015851;
    }
    sphere85
    {
        type            wall;
        inGroups        1(wall);
        nFaces          0;
        startFace       1015851;
    }
    sphere86
    {
        type            wall;
        inGroups        1(wall);
        nFaces          0;
        startFace       1015851;
    }
    sphere87
    {
        type            wall;
        inGroups        1(wall);
        nFaces          1471;
        startFace       1015851;
    }
    sphere88
    {
        type            wall;
        inGroups        1(wall);
        nFaces          0;
        startFace       1017322;
    }
    sphere89
    {
        type            wall;
        inGroups        1(wall);
        nFaces          0;
        startFace       1017322;
    }
    sphere90
    {
        type            wall;
        inGroups        1(wall);
        nFaces          0;
        startFace       1017322;
    }
    sphere91
    {
        type            wall;
        inGroups        1(wall);
        nFaces          0;
        startFace       1017322;
    }
    sphere92
    {
        type            wall;
        inGroups        1(wall);
        nFaces          0;
        startFace       1017322;
    }
    sphere93
    {
        type            wall;
        inGroups        1(wall);
        nFaces          0;
        startFace       1017322;
    }
    sphere94
    {
        type            wall;
        inGroups        1(wall);
        nFaces          0;
        startFace       1017322;
    }
    sphere95
    {
        type            wall;
        inGroups        1(wall);
        nFaces          0;
        startFace       1017322;
    }
    sphere96
    {
        type            wall;
        inGroups        1(wall);
        nFaces          0;
        startFace       1017322;
    }
    sphere97
    {
        type            wall;
        inGroups        1(wall);
        nFaces          3646;
        startFace       1017322;
    }
    sphere98
    {
        type            wall;
        inGroups        1(wall);
        nFaces          0;
        startFace       1020968;
    }
    sphere99
    {
        type            wall;
        inGroups        1(wall);
        nFaces          0;
        startFace       1020968;
    }
    sphere100
    {
        type            wall;
        inGroups        1(wall);
        nFaces          0;
        startFace       1020968;
    }
    sphere101
    {
        type            wall;
        inGroups        1(wall);
        nFaces          0;
        startFace       1020968;
    }
    sphere102
    {
        type            wall;
        inGroups        1(wall);
        nFaces          0;
        startFace       1020968;
    }
    sphere103
    {
        type            wall;
        inGroups        1(wall);
        nFaces          0;
        startFace       1020968;
    }
    sphere104
    {
        type            wall;
        inGroups        1(wall);
        nFaces          0;
        startFace       1020968;
    }
    sphere105
    {
        type            wall;
        inGroups        1(wall);
        nFaces          0;
        startFace       1020968;
    }
    sphere106
    {
        type            wall;
        inGroups        1(wall);
        nFaces          0;
        startFace       1020968;
    }
    sphere107
    {
        type            wall;
        inGroups        1(wall);
        nFaces          0;
        startFace       1020968;
    }
    sphere108
    {
        type            wall;
        inGroups        1(wall);
        nFaces          1883;
        startFace       1020968;
    }
    sphere109
    {
        type            wall;
        inGroups        1(wall);
        nFaces          0;
        startFace       1022851;
    }
    sphere110
    {
        type            wall;
        inGroups        1(wall);
        nFaces          0;
        startFace       1022851;
    }
    sphere111
    {
        type            wall;
        inGroups        1(wall);
        nFaces          0;
        startFace       1022851;
    }
    sphere112
    {
        type            wall;
        inGroups        1(wall);
        nFaces          0;
        startFace       1022851;
    }
    sphere113
    {
        type            wall;
        inGroups        1(wall);
        nFaces          0;
        startFace       1022851;
    }
    sphere114
    {
        type            wall;
        inGroups        1(wall);
        nFaces          5906;
        startFace       1022851;
    }
    sphere115
    {
        type            wall;
        inGroups        1(wall);
        nFaces          0;
        startFace       1028757;
    }
    sphere116
    {
        type            wall;
        inGroups        1(wall);
        nFaces          0;
        startFace       1028757;
    }
    sphere117
    {
        type            wall;
        inGroups        1(wall);
        nFaces          0;
        startFace       1028757;
    }
    sphere118
    {
        type            wall;
        inGroups        1(wall);
        nFaces          0;
        startFace       1028757;
    }
    sphere119
    {
        type            wall;
        inGroups        1(wall);
        nFaces          0;
        startFace       1028757;
    }
    sphere120
    {
        type            wall;
        inGroups        1(wall);
        nFaces          0;
        startFace       1028757;
    }
    sphere121
    {
        type            wall;
        inGroups        1(wall);
        nFaces          0;
        startFace       1028757;
    }
    sphere122
    {
        type            wall;
        inGroups        1(wall);
        nFaces          0;
        startFace       1028757;
    }
    sphere123
    {
        type            wall;
        inGroups        1(wall);
        nFaces          0;
        startFace       1028757;
    }
    sphere124
    {
        type            wall;
        inGroups        1(wall);
        nFaces          0;
        startFace       1028757;
    }
    sphere125
    {
        type            wall;
        inGroups        1(wall);
        nFaces          0;
        startFace       1028757;
    }
    sphere126
    {
        type            wall;
        inGroups        1(wall);
        nFaces          0;
        startFace       1028757;
    }
    sphere127
    {
        type            wall;
        inGroups        1(wall);
        nFaces          60;
        startFace       1028757;
    }
    sphere128
    {
        type            wall;
        inGroups        1(wall);
        nFaces          0;
        startFace       1028817;
    }
    sphere129
    {
        type            wall;
        inGroups        1(wall);
        nFaces          0;
        startFace       1028817;
    }
    sphere130
    {
        type            wall;
        inGroups        1(wall);
        nFaces          0;
        startFace       1028817;
    }
    sphere131
    {
        type            wall;
        inGroups        1(wall);
        nFaces          0;
        startFace       1028817;
    }
    sphere132
    {
        type            wall;
        inGroups        1(wall);
        nFaces          0;
        startFace       1028817;
    }
    sphere133
    {
        type            wall;
        inGroups        1(wall);
        nFaces          0;
        startFace       1028817;
    }
    sphere134
    {
        type            wall;
        inGroups        1(wall);
        nFaces          0;
        startFace       1028817;
    }
    sphere135
    {
        type            wall;
        inGroups        1(wall);
        nFaces          0;
        startFace       1028817;
    }
    sphere136
    {
        type            wall;
        inGroups        1(wall);
        nFaces          0;
        startFace       1028817;
    }
    sphere137
    {
        type            wall;
        inGroups        1(wall);
        nFaces          0;
        startFace       1028817;
    }
    sphere138
    {
        type            wall;
        inGroups        1(wall);
        nFaces          0;
        startFace       1028817;
    }
    sphere139
    {
        type            wall;
        inGroups        1(wall);
        nFaces          0;
        startFace       1028817;
    }
    sphere140
    {
        type            wall;
        inGroups        1(wall);
        nFaces          439;
        startFace       1028817;
    }
    sphere141
    {
        type            wall;
        inGroups        1(wall);
        nFaces          0;
        startFace       1029256;
    }
    sphere142
    {
        type            wall;
        inGroups        1(wall);
        nFaces          0;
        startFace       1029256;
    }
    sphere143
    {
        type            wall;
        inGroups        1(wall);
        nFaces          0;
        startFace       1029256;
    }
    sphere144
    {
        type            wall;
        inGroups        1(wall);
        nFaces          0;
        startFace       1029256;
    }
    sphere145
    {
        type            wall;
        inGroups        1(wall);
        nFaces          0;
        startFace       1029256;
    }
    sphere146
    {
        type            wall;
        inGroups        1(wall);
        nFaces          0;
        startFace       1029256;
    }
    sphere147
    {
        type            wall;
        inGroups        1(wall);
        nFaces          0;
        startFace       1029256;
    }
    sphere148
    {
        type            wall;
        inGroups        1(wall);
        nFaces          0;
        startFace       1029256;
    }
    sphere149
    {
        type            wall;
        inGroups        1(wall);
        nFaces          0;
        startFace       1029256;
    }
    sphere150
    {
        type            wall;
        inGroups        1(wall);
        nFaces          0;
        startFace       1029256;
    }
    sphere151
    {
        type            wall;
        inGroups        1(wall);
        nFaces          0;
        startFace       1029256;
    }
    sphere152
    {
        type            wall;
        inGroups        1(wall);
        nFaces          0;
        startFace       1029256;
    }
    sphere153
    {
        type            wall;
        inGroups        1(wall);
        nFaces          0;
        startFace       1029256;
    }
    sphere154
    {
        type            wall;
        inGroups        1(wall);
        nFaces          0;
        startFace       1029256;
    }
    sphere155
    {
        type            wall;
        inGroups        1(wall);
        nFaces          0;
        startFace       1029256;
    }
    sphere156
    {
        type            wall;
        inGroups        1(wall);
        nFaces          0;
        startFace       1029256;
    }
    sphere157
    {
        type            wall;
        inGroups        1(wall);
        nFaces          7256;
        startFace       1029256;
    }
    sphere158
    {
        type            wall;
        inGroups        1(wall);
        nFaces          0;
        startFace       1036512;
    }
    sphere159
    {
        type            wall;
        inGroups        1(wall);
        nFaces          0;
        startFace       1036512;
    }
    sphere160
    {
        type            wall;
        inGroups        1(wall);
        nFaces          0;
        startFace       1036512;
    }
    sphere161
    {
        type            wall;
        inGroups        1(wall);
        nFaces          0;
        startFace       1036512;
    }
    sphere162
    {
        type            wall;
        inGroups        1(wall);
        nFaces          0;
        startFace       1036512;
    }
    sphere163
    {
        type            wall;
        inGroups        1(wall);
        nFaces          0;
        startFace       1036512;
    }
    sphere164
    {
        type            wall;
        inGroups        1(wall);
        nFaces          0;
        startFace       1036512;
    }
    sphere165
    {
        type            wall;
        inGroups        1(wall);
        nFaces          0;
        startFace       1036512;
    }
    sphere166
    {
        type            wall;
        inGroups        1(wall);
        nFaces          0;
        startFace       1036512;
    }
    sphere167
    {
        type            wall;
        inGroups        1(wall);
        nFaces          0;
        startFace       1036512;
    }
    sphere168
    {
        type            wall;
        inGroups        1(wall);
        nFaces          0;
        startFace       1036512;
    }
    sphere169
    {
        type            wall;
        inGroups        1(wall);
        nFaces          0;
        startFace       1036512;
    }
    sphere170
    {
        type            wall;
        inGroups        1(wall);
        nFaces          911;
        startFace       1036512;
    }
    sphere171
    {
        type            wall;
        inGroups        1(wall);
        nFaces          1908;
        startFace       1037423;
    }
    sphere172
    {
        type            wall;
        inGroups        1(wall);
        nFaces          0;
        startFace       1039331;
    }
    sphere173
    {
        type            wall;
        inGroups        1(wall);
        nFaces          956;
        startFace       1039331;
    }
    sphere174
    {
        type            wall;
        inGroups        1(wall);
        nFaces          0;
        startFace       1040287;
    }
    sphere175
    {
        type            wall;
        inGroups        1(wall);
        nFaces          0;
        startFace       1040287;
    }
    sphere176
    {
        type            wall;
        inGroups        1(wall);
        nFaces          368;
        startFace       1040287;
    }
    sphere177
    {
        type            wall;
        inGroups        1(wall);
        nFaces          0;
        startFace       1040655;
    }
    sphere178
    {
        type            wall;
        inGroups        1(wall);
        nFaces          3601;
        startFace       1040655;
    }
    sphere179
    {
        type            wall;
        inGroups        1(wall);
        nFaces          0;
        startFace       1044256;
    }
    sphere180
    {
        type            wall;
        inGroups        1(wall);
        nFaces          0;
        startFace       1044256;
    }
    procBoundary1to0
    {
        type            processor;
        inGroups        1(processor);
        nFaces          2491;
        startFace       1044256;
        matchTolerance  0.0001;
        transform       unknown;
        myProcNo        1;
        neighbProcNo    0;
    }
    procBoundary1to3
    {
        type            processor;
        inGroups        1(processor);
        nFaces          3178;
        startFace       1046747;
        matchTolerance  0.0001;
        transform       unknown;
        myProcNo        1;
        neighbProcNo    3;
    }
    procBoundary1to4
    {
        type            processor;
        inGroups        1(processor);
        nFaces          1;
        startFace       1049925;
        matchTolerance  0.0001;
        transform       unknown;
        myProcNo        1;
        neighbProcNo    4;
    }
    procBoundary1to5
    {
        type            processor;
        inGroups        1(processor);
        nFaces          2510;
        startFace       1049926;
        matchTolerance  0.0001;
        transform       unknown;
        myProcNo        1;
        neighbProcNo    5;
    }
)

// ************************************************************************* //
